/*---------------------------------------------------------------------------*\
  =========                 |
  \\      /  F ield         | OpenFOAM: The Open Source CFD Toolbox
   \\    /   O peration     | Website:  https://openfoam.org
    \\  /    A nd           | Version:  11
     \\/     M anipulation  |
\*---------------------------------------------------------------------------*/
Build  : 11-d5b4d966c3c5
Exec   : blockMesh
Date   : Oct 29 2023
Time   : 06:38:30
Host   : "DESKTOP-HKKRBJC"
PID    : 29153
I/O    : uncollated
Case   : /home/krispynaan/OpenFOAM/krispynaan-11/run/wedge15Ma5
nProcs : 1
sigFpe : Enabling floating point exception trapping (FOAM_SIGFPE).
fileModificationChecking : Monitoring run-time modified files using timeStampMaster (fileModificationSkew 10)
allowSystemOperations : Allowing user-supplied system call operations

// * * * * * * * * * * * * * * * * * * * * * * * * * * * * * * * * * * * * * //
Create time

Deleting polyMesh directory
    "/home/krispynaan/OpenFOAM/krispynaan-11/run/wedge15Ma5/constant/polyMesh"
Reading "blockMeshDict"

Creating block mesh from
    "system/blockMeshDict"
Creating block edges
No non-planar block faces defined
Creating topology blocks
Creating topology patches

Creating block mesh topology

Check topology

	Basic statistics
		Number of internal faces : 2
		Number of boundary faces : 14
		Number of defined boundary faces : 14
		Number of undefined boundary faces : 0
	Checking patch -> block consistency

Creating block offsets
Creating merge list .

Creating polyMesh from blockMesh
Creating patches
Creating cells
Creating points with scale 1
    Block 0 cell size :
        i : 0.005 .. 0.005
        j : 0.005 .. 0.005
        k : 0.01
    Block 1 cell size :
        i : 0.0025661 .. 0.0025661 0.00255998 .. 0.00255998 0.0025661 .. 0.0025661 0.00255998 .. 0.00255998 
        j : 0.005 .. 0.005 0.00497591 .. 0.00497591 0.005 .. 0.005 0.00497591 .. 0.00497591 
        k : 0.01
    Block 2 cell size :
        i : 0.005
        j : 0.005 .. 0.005
        k : 0.01

There are no merge patch pairs edges

Writing polyMesh
----------------
Mesh Information
----------------
  boundingBox: (0 0 -0.005) (0.5 0.2 0.005)
  nPoints: 9922
  nCells: 4800
  nFaces: 19360
  nInternalFaces: 9440
----------------
Patches
----------------
  patch 0 (start: 9440 size: 40) name: inlet
  patch 1 (start: 9480 size: 40) name: outlet
  patch 2 (start: 9520 size: 80) name: bottom
  patch 3 (start: 9600 size: 120) name: top
  patch 4 (start: 9720 size: 40) name: obstacle
  patch 5 (start: 9760 size: 9600) name: defaultFaces

End

