
postProcess has been superseded and replaced by the more general foamPostProcess
utility which will be executed instead:

/*---------------------------------------------------------------------------*\
  =========                 |
  \\      /  F ield         | OpenFOAM: The Open Source CFD Toolbox
   \\    /   O peration     | Website:  https://openfoam.org
    \\  /    A nd           | Version:  11
     \\/     M anipulation  |
\*---------------------------------------------------------------------------*/
Build  : 11-d5b4d966c3c5
Exec   : foamPostProcess -func writeCellCentres
Date   : Oct 29 2023
Time   : 06:47:49
Host   : "DESKTOP-HKKRBJC"
PID    : 32635
I/O    : uncollated
Case   : /home/krispynaan/OpenFOAM/krispynaan-11/run/wedge15Ma5
nProcs : 1
sigFpe : Enabling floating point exception trapping (FOAM_SIGFPE).
fileModificationChecking : Monitoring run-time modified files using timeStampMaster (fileModificationSkew 10)
allowSystemOperations : Allowing user-supplied system call operations

// * * * * * * * * * * * * * * * * * * * * * * * * * * * * * * * * * * * * * //
Create time

Create mesh for time = 0

Time = 0s

Reading fields:

Executing functionObjects
    Writing cell-centre field C to 0
    Writing the x component field of the cell-centres Ccx to 0
    Writing the y component field of the cell-centres Ccy to 0
    Writing the z component field of the cell-centres Ccz to 0

Time = 0.02s

Reading fields:

Executing functionObjects
    Writing cell-centre field C to 0.02
    Writing the x component field of the cell-centres Ccx to 0.02
    Writing the y component field of the cell-centres Ccy to 0.02
    Writing the z component field of the cell-centres Ccz to 0.02

Time = 0.04s

Reading fields:

Executing functionObjects
    Writing cell-centre field C to 0.04
    Writing the x component field of the cell-centres Ccx to 0.04
    Writing the y component field of the cell-centres Ccy to 0.04
    Writing the z component field of the cell-centres Ccz to 0.04

Time = 0.06s

Reading fields:

Executing functionObjects
    Writing cell-centre field C to 0.06
    Writing the x component field of the cell-centres Ccx to 0.06
    Writing the y component field of the cell-centres Ccy to 0.06
    Writing the z component field of the cell-centres Ccz to 0.06

Time = 0.08s

Reading fields:

Executing functionObjects
    Writing cell-centre field C to 0.08
    Writing the x component field of the cell-centres Ccx to 0.08
    Writing the y component field of the cell-centres Ccy to 0.08
    Writing the z component field of the cell-centres Ccz to 0.08

Time = 0.1s

Reading fields:

Executing functionObjects
    Writing cell-centre field C to 0.1
    Writing the x component field of the cell-centres Ccx to 0.1
    Writing the y component field of the cell-centres Ccy to 0.1
    Writing the z component field of the cell-centres Ccz to 0.1

Time = 0.12s

Reading fields:

Executing functionObjects
    Writing cell-centre field C to 0.12
    Writing the x component field of the cell-centres Ccx to 0.12
    Writing the y component field of the cell-centres Ccy to 0.12
    Writing the z component field of the cell-centres Ccz to 0.12

Time = 0.14s

Reading fields:

Executing functionObjects
    Writing cell-centre field C to 0.14
    Writing the x component field of the cell-centres Ccx to 0.14
    Writing the y component field of the cell-centres Ccy to 0.14
    Writing the z component field of the cell-centres Ccz to 0.14

Time = 0.16s

Reading fields:

Executing functionObjects
    Writing cell-centre field C to 0.16
    Writing the x component field of the cell-centres Ccx to 0.16
    Writing the y component field of the cell-centres Ccy to 0.16
    Writing the z component field of the cell-centres Ccz to 0.16

Time = 0.18s

Reading fields:

Executing functionObjects
    Writing cell-centre field C to 0.18
    Writing the x component field of the cell-centres Ccx to 0.18
    Writing the y component field of the cell-centres Ccy to 0.18
    Writing the z component field of the cell-centres Ccz to 0.18

Time = 0.2s

Reading fields:

Executing functionObjects
    Writing cell-centre field C to 0.2
    Writing the x component field of the cell-centres Ccx to 0.2
    Writing the y component field of the cell-centres Ccy to 0.2
    Writing the z component field of the cell-centres Ccz to 0.2

End

