
rhoCentralFoam has been superseded and replaced by the more general
shockFluid solver module executed by the foamRun application:

    foamRun -solver shockFluid

/*---------------------------------------------------------------------------*\
  =========                 |
  \\      /  F ield         | OpenFOAM: The Open Source CFD Toolbox
   \\    /   O peration     | Website:  https://openfoam.org
    \\  /    A nd           | Version:  11
     \\/     M anipulation  |
\*---------------------------------------------------------------------------*/
Build  : 11-d5b4d966c3c5
Exec   : foamRun -solver shockFluid
Date   : Oct 29 2023
Time   : 06:47:43
Host   : "DESKTOP-HKKRBJC"
PID    : 32603
I/O    : uncollated
Case   : /home/krispynaan/OpenFOAM/krispynaan-11/run/wedge15Ma5
nProcs : 1
sigFpe : Enabling floating point exception trapping (FOAM_SIGFPE).
fileModificationChecking : Monitoring run-time modified files using timeStampMaster (fileModificationSkew 10)
allowSystemOperations : Allowing user-supplied system call operations

// * * * * * * * * * * * * * * * * * * * * * * * * * * * * * * * * * * * * * //
Create time

Create mesh for time = 0

Selecting solver shockFluid
Selecting thermodynamics package 
{
    type            hePsiThermo;
    mixture         pureMixture;
    transport       const;
    thermo          hConst;
    equationOfState perfectGas;
    specie          specie;
    energy          sensibleInternalEnergy;
}

Courant Number mean: 0.130625 max: 0.248871

PIMPLE: No convergence criteria found


PIMPLE: Operating solver in transient mode with 1 outer corrector
PIMPLE: Operating solver in PISO mode



Starting time loop

Courant Number mean: 0.130625 max: 0.248871
Time = 0.0001s

diagonal:  Solving for rho, Initial residual = 0, Final residual = 0, No Iterations 0
diagonal:  Solving for Ux, Initial residual = 0, Final residual = 0, No Iterations 0
diagonal:  Solving for Uy, Initial residual = 0, Final residual = 0, No Iterations 0
diagonal:  Solving for e, Initial residual = 0, Final residual = 0, No Iterations 0
ExecutionTime = 0.078125 s  ClockTime = 1 s

Courant Number mean: 0.130625 max: 0.248871
Time = 0.0002s

diagonal:  Solving for rho, Initial residual = 0, Final residual = 0, No Iterations 0
diagonal:  Solving for Ux, Initial residual = 0, Final residual = 0, No Iterations 0
diagonal:  Solving for Uy, Initial residual = 0, Final residual = 0, No Iterations 0
diagonal:  Solving for e, Initial residual = 0, Final residual = 0, No Iterations 0
ExecutionTime = 0.09375 s  ClockTime = 1 s

Courant Number mean: 0.130627 max: 0.249598
Time = 0.0003s

diagonal:  Solving for rho, Initial residual = 0, Final residual = 0, No Iterations 0
diagonal:  Solving for Ux, Initial residual = 0, Final residual = 0, No Iterations 0
diagonal:  Solving for Uy, Initial residual = 0, Final residual = 0, No Iterations 0
diagonal:  Solving for e, Initial residual = 0, Final residual = 0, No Iterations 0
ExecutionTime = 0.09375 s  ClockTime = 1 s

Courant Number mean: 0.130628 max: 0.250479
Time = 0.0004s

diagonal:  Solving for rho, Initial residual = 0, Final residual = 0, No Iterations 0
diagonal:  Solving for Ux, Initial residual = 0, Final residual = 0, No Iterations 0
diagonal:  Solving for Uy, Initial residual = 0, Final residual = 0, No Iterations 0
diagonal:  Solving for e, Initial residual = 0, Final residual = 0, No Iterations 0
ExecutionTime = 0.09375 s  ClockTime = 1 s

Courant Number mean: 0.130628 max: 0.251332
Time = 0.0005s

diagonal:  Solving for rho, Initial residual = 0, Final residual = 0, No Iterations 0
diagonal:  Solving for Ux, Initial residual = 0, Final residual = 0, No Iterations 0
diagonal:  Solving for Uy, Initial residual = 0, Final residual = 0, No Iterations 0
diagonal:  Solving for e, Initial residual = 0, Final residual = 0, No Iterations 0
ExecutionTime = 0.09375 s  ClockTime = 1 s

Courant Number mean: 0.130628 max: 0.252089
Time = 0.0006s

diagonal:  Solving for rho, Initial residual = 0, Final residual = 0, No Iterations 0
diagonal:  Solving for Ux, Initial residual = 0, Final residual = 0, No Iterations 0
diagonal:  Solving for Uy, Initial residual = 0, Final residual = 0, No Iterations 0
diagonal:  Solving for e, Initial residual = 0, Final residual = 0, No Iterations 0
ExecutionTime = 0.09375 s  ClockTime = 1 s

Courant Number mean: 0.130628 max: 0.252745
Time = 0.0007s

diagonal:  Solving for rho, Initial residual = 0, Final residual = 0, No Iterations 0
diagonal:  Solving for Ux, Initial residual = 0, Final residual = 0, No Iterations 0
diagonal:  Solving for Uy, Initial residual = 0, Final residual = 0, No Iterations 0
diagonal:  Solving for e, Initial residual = 0, Final residual = 0, No Iterations 0
ExecutionTime = 0.09375 s  ClockTime = 1 s

Courant Number mean: 0.130628 max: 0.253326
Time = 0.0008s

diagonal:  Solving for rho, Initial residual = 0, Final residual = 0, No Iterations 0
diagonal:  Solving for Ux, Initial residual = 0, Final residual = 0, No Iterations 0
diagonal:  Solving for Uy, Initial residual = 0, Final residual = 0, No Iterations 0
diagonal:  Solving for e, Initial residual = 0, Final residual = 0, No Iterations 0
ExecutionTime = 0.09375 s  ClockTime = 1 s

Courant Number mean: 0.130628 max: 0.253912
Time = 0.0009s

diagonal:  Solving for rho, Initial residual = 0, Final residual = 0, No Iterations 0
diagonal:  Solving for Ux, Initial residual = 0, Final residual = 0, No Iterations 0
diagonal:  Solving for Uy, Initial residual = 0, Final residual = 0, No Iterations 0
diagonal:  Solving for e, Initial residual = 0, Final residual = 0, No Iterations 0
ExecutionTime = 0.109375 s  ClockTime = 1 s

Courant Number mean: 0.130627 max: 0.254798
Time = 0.001s

diagonal:  Solving for rho, Initial residual = 0, Final residual = 0, No Iterations 0
diagonal:  Solving for Ux, Initial residual = 0, Final residual = 0, No Iterations 0
diagonal:  Solving for Uy, Initial residual = 0, Final residual = 0, No Iterations 0
diagonal:  Solving for e, Initial residual = 0, Final residual = 0, No Iterations 0
ExecutionTime = 0.109375 s  ClockTime = 1 s

Courant Number mean: 0.130627 max: 0.25557
Time = 0.0011s

diagonal:  Solving for rho, Initial residual = 0, Final residual = 0, No Iterations 0
diagonal:  Solving for Ux, Initial residual = 0, Final residual = 0, No Iterations 0
diagonal:  Solving for Uy, Initial residual = 0, Final residual = 0, No Iterations 0
diagonal:  Solving for e, Initial residual = 0, Final residual = 0, No Iterations 0
ExecutionTime = 0.109375 s  ClockTime = 1 s

Courant Number mean: 0.130627 max: 0.256318
Time = 0.0012s

diagonal:  Solving for rho, Initial residual = 0, Final residual = 0, No Iterations 0
diagonal:  Solving for Ux, Initial residual = 0, Final residual = 0, No Iterations 0
diagonal:  Solving for Uy, Initial residual = 0, Final residual = 0, No Iterations 0
diagonal:  Solving for e, Initial residual = 0, Final residual = 0, No Iterations 0
ExecutionTime = 0.109375 s  ClockTime = 1 s

Courant Number mean: 0.130626 max: 0.257022
Time = 0.0013s

diagonal:  Solving for rho, Initial residual = 0, Final residual = 0, No Iterations 0
diagonal:  Solving for Ux, Initial residual = 0, Final residual = 0, No Iterations 0
diagonal:  Solving for Uy, Initial residual = 0, Final residual = 0, No Iterations 0
diagonal:  Solving for e, Initial residual = 0, Final residual = 0, No Iterations 0
ExecutionTime = 0.109375 s  ClockTime = 1 s

Courant Number mean: 0.130625 max: 0.257638
Time = 0.0014s

diagonal:  Solving for rho, Initial residual = 0, Final residual = 0, No Iterations 0
diagonal:  Solving for Ux, Initial residual = 0, Final residual = 0, No Iterations 0
diagonal:  Solving for Uy, Initial residual = 0, Final residual = 0, No Iterations 0
diagonal:  Solving for e, Initial residual = 0, Final residual = 0, No Iterations 0
ExecutionTime = 0.109375 s  ClockTime = 1 s

Courant Number mean: 0.130625 max: 0.258123
Time = 0.0015s

diagonal:  Solving for rho, Initial residual = 0, Final residual = 0, No Iterations 0
diagonal:  Solving for Ux, Initial residual = 0, Final residual = 0, No Iterations 0
diagonal:  Solving for Uy, Initial residual = 0, Final residual = 0, No Iterations 0
diagonal:  Solving for e, Initial residual = 0, Final residual = 0, No Iterations 0
ExecutionTime = 0.109375 s  ClockTime = 1 s

Courant Number mean: 0.130624 max: 0.258458
Time = 0.0016s

diagonal:  Solving for rho, Initial residual = 0, Final residual = 0, No Iterations 0
diagonal:  Solving for Ux, Initial residual = 0, Final residual = 0, No Iterations 0
diagonal:  Solving for Uy, Initial residual = 0, Final residual = 0, No Iterations 0
diagonal:  Solving for e, Initial residual = 0, Final residual = 0, No Iterations 0
ExecutionTime = 0.125 s  ClockTime = 1 s

Courant Number mean: 0.130623 max: 0.258652
Time = 0.0017s

diagonal:  Solving for rho, Initial residual = 0, Final residual = 0, No Iterations 0
diagonal:  Solving for Ux, Initial residual = 0, Final residual = 0, No Iterations 0
diagonal:  Solving for Uy, Initial residual = 0, Final residual = 0, No Iterations 0
diagonal:  Solving for e, Initial residual = 0, Final residual = 0, No Iterations 0
ExecutionTime = 0.125 s  ClockTime = 1 s

Courant Number mean: 0.130623 max: 0.258726
Time = 0.0018s

diagonal:  Solving for rho, Initial residual = 0, Final residual = 0, No Iterations 0
diagonal:  Solving for Ux, Initial residual = 0, Final residual = 0, No Iterations 0
diagonal:  Solving for Uy, Initial residual = 0, Final residual = 0, No Iterations 0
diagonal:  Solving for e, Initial residual = 0, Final residual = 0, No Iterations 0
ExecutionTime = 0.125 s  ClockTime = 1 s

Courant Number mean: 0.130622 max: 0.258708
Time = 0.0019s

diagonal:  Solving for rho, Initial residual = 0, Final residual = 0, No Iterations 0
diagonal:  Solving for Ux, Initial residual = 0, Final residual = 0, No Iterations 0
diagonal:  Solving for Uy, Initial residual = 0, Final residual = 0, No Iterations 0
diagonal:  Solving for e, Initial residual = 0, Final residual = 0, No Iterations 0
ExecutionTime = 0.125 s  ClockTime = 1 s

Courant Number mean: 0.130621 max: 0.258621
Time = 0.002s

diagonal:  Solving for rho, Initial residual = 0, Final residual = 0, No Iterations 0
diagonal:  Solving for Ux, Initial residual = 0, Final residual = 0, No Iterations 0
diagonal:  Solving for Uy, Initial residual = 0, Final residual = 0, No Iterations 0
diagonal:  Solving for e, Initial residual = 0, Final residual = 0, No Iterations 0
ExecutionTime = 0.125 s  ClockTime = 1 s

Courant Number mean: 0.130621 max: 0.258484
Time = 0.0021s

diagonal:  Solving for rho, Initial residual = 0, Final residual = 0, No Iterations 0
diagonal:  Solving for Ux, Initial residual = 0, Final residual = 0, No Iterations 0
diagonal:  Solving for Uy, Initial residual = 0, Final residual = 0, No Iterations 0
diagonal:  Solving for e, Initial residual = 0, Final residual = 0, No Iterations 0
ExecutionTime = 0.125 s  ClockTime = 1 s

Courant Number mean: 0.13062 max: 0.258307
Time = 0.0022s

diagonal:  Solving for rho, Initial residual = 0, Final residual = 0, No Iterations 0
diagonal:  Solving for Ux, Initial residual = 0, Final residual = 0, No Iterations 0
diagonal:  Solving for Uy, Initial residual = 0, Final residual = 0, No Iterations 0
diagonal:  Solving for e, Initial residual = 0, Final residual = 0, No Iterations 0
ExecutionTime = 0.125 s  ClockTime = 1 s

Courant Number mean: 0.130619 max: 0.258097
Time = 0.0023s

diagonal:  Solving for rho, Initial residual = 0, Final residual = 0, No Iterations 0
diagonal:  Solving for Ux, Initial residual = 0, Final residual = 0, No Iterations 0
diagonal:  Solving for Uy, Initial residual = 0, Final residual = 0, No Iterations 0
diagonal:  Solving for e, Initial residual = 0, Final residual = 0, No Iterations 0
ExecutionTime = 0.140625 s  ClockTime = 1 s

Courant Number mean: 0.130619 max: 0.257858
Time = 0.0024s

diagonal:  Solving for rho, Initial residual = 0, Final residual = 0, No Iterations 0
diagonal:  Solving for Ux, Initial residual = 0, Final residual = 0, No Iterations 0
diagonal:  Solving for Uy, Initial residual = 0, Final residual = 0, No Iterations 0
diagonal:  Solving for e, Initial residual = 0, Final residual = 0, No Iterations 0
ExecutionTime = 0.140625 s  ClockTime = 1 s

Courant Number mean: 0.130618 max: 0.257592
Time = 0.0025s

diagonal:  Solving for rho, Initial residual = 0, Final residual = 0, No Iterations 0
diagonal:  Solving for Ux, Initial residual = 0, Final residual = 0, No Iterations 0
diagonal:  Solving for Uy, Initial residual = 0, Final residual = 0, No Iterations 0
diagonal:  Solving for e, Initial residual = 0, Final residual = 0, No Iterations 0
ExecutionTime = 0.140625 s  ClockTime = 1 s

Courant Number mean: 0.130617 max: 0.257301
Time = 0.0026s

diagonal:  Solving for rho, Initial residual = 0, Final residual = 0, No Iterations 0
diagonal:  Solving for Ux, Initial residual = 0, Final residual = 0, No Iterations 0
diagonal:  Solving for Uy, Initial residual = 0, Final residual = 0, No Iterations 0
diagonal:  Solving for e, Initial residual = 0, Final residual = 0, No Iterations 0
ExecutionTime = 0.140625 s  ClockTime = 1 s

Courant Number mean: 0.130617 max: 0.256988
Time = 0.0027s

diagonal:  Solving for rho, Initial residual = 0, Final residual = 0, No Iterations 0
diagonal:  Solving for Ux, Initial residual = 0, Final residual = 0, No Iterations 0
diagonal:  Solving for Uy, Initial residual = 0, Final residual = 0, No Iterations 0
diagonal:  Solving for e, Initial residual = 0, Final residual = 0, No Iterations 0
ExecutionTime = 0.140625 s  ClockTime = 1 s

Courant Number mean: 0.130616 max: 0.256655
Time = 0.0028s

diagonal:  Solving for rho, Initial residual = 0, Final residual = 0, No Iterations 0
diagonal:  Solving for Ux, Initial residual = 0, Final residual = 0, No Iterations 0
diagonal:  Solving for Uy, Initial residual = 0, Final residual = 0, No Iterations 0
diagonal:  Solving for e, Initial residual = 0, Final residual = 0, No Iterations 0
ExecutionTime = 0.140625 s  ClockTime = 1 s

Courant Number mean: 0.130615 max: 0.256304
Time = 0.0029s

diagonal:  Solving for rho, Initial residual = 0, Final residual = 0, No Iterations 0
diagonal:  Solving for Ux, Initial residual = 0, Final residual = 0, No Iterations 0
diagonal:  Solving for Uy, Initial residual = 0, Final residual = 0, No Iterations 0
diagonal:  Solving for e, Initial residual = 0, Final residual = 0, No Iterations 0
ExecutionTime = 0.140625 s  ClockTime = 1 s

Courant Number mean: 0.130615 max: 0.255938
Time = 0.003s

diagonal:  Solving for rho, Initial residual = 0, Final residual = 0, No Iterations 0
diagonal:  Solving for Ux, Initial residual = 0, Final residual = 0, No Iterations 0
diagonal:  Solving for Uy, Initial residual = 0, Final residual = 0, No Iterations 0
diagonal:  Solving for e, Initial residual = 0, Final residual = 0, No Iterations 0
ExecutionTime = 0.15625 s  ClockTime = 1 s

Courant Number mean: 0.130614 max: 0.255559
Time = 0.0031s

diagonal:  Solving for rho, Initial residual = 0, Final residual = 0, No Iterations 0
diagonal:  Solving for Ux, Initial residual = 0, Final residual = 0, No Iterations 0
diagonal:  Solving for Uy, Initial residual = 0, Final residual = 0, No Iterations 0
diagonal:  Solving for e, Initial residual = 0, Final residual = 0, No Iterations 0
ExecutionTime = 0.15625 s  ClockTime = 1 s

Courant Number mean: 0.130613 max: 0.255171
Time = 0.0032s

diagonal:  Solving for rho, Initial residual = 0, Final residual = 0, No Iterations 0
diagonal:  Solving for Ux, Initial residual = 0, Final residual = 0, No Iterations 0
diagonal:  Solving for Uy, Initial residual = 0, Final residual = 0, No Iterations 0
diagonal:  Solving for e, Initial residual = 0, Final residual = 0, No Iterations 0
ExecutionTime = 0.15625 s  ClockTime = 1 s

Courant Number mean: 0.130613 max: 0.254775
Time = 0.0033s

diagonal:  Solving for rho, Initial residual = 0, Final residual = 0, No Iterations 0
diagonal:  Solving for Ux, Initial residual = 0, Final residual = 0, No Iterations 0
diagonal:  Solving for Uy, Initial residual = 0, Final residual = 0, No Iterations 0
diagonal:  Solving for e, Initial residual = 0, Final residual = 0, No Iterations 0
ExecutionTime = 0.15625 s  ClockTime = 1 s

Courant Number mean: 0.130612 max: 0.254374
Time = 0.0034s

diagonal:  Solving for rho, Initial residual = 0, Final residual = 0, No Iterations 0
diagonal:  Solving for Ux, Initial residual = 0, Final residual = 0, No Iterations 0
diagonal:  Solving for Uy, Initial residual = 0, Final residual = 0, No Iterations 0
diagonal:  Solving for e, Initial residual = 0, Final residual = 0, No Iterations 0
ExecutionTime = 0.15625 s  ClockTime = 1 s

Courant Number mean: 0.130612 max: 0.253969
Time = 0.0035s

diagonal:  Solving for rho, Initial residual = 0, Final residual = 0, No Iterations 0
diagonal:  Solving for Ux, Initial residual = 0, Final residual = 0, No Iterations 0
diagonal:  Solving for Uy, Initial residual = 0, Final residual = 0, No Iterations 0
diagonal:  Solving for e, Initial residual = 0, Final residual = 0, No Iterations 0
ExecutionTime = 0.15625 s  ClockTime = 1 s

Courant Number mean: 0.130611 max: 0.253565
Time = 0.0036s

diagonal:  Solving for rho, Initial residual = 0, Final residual = 0, No Iterations 0
diagonal:  Solving for Ux, Initial residual = 0, Final residual = 0, No Iterations 0
diagonal:  Solving for Uy, Initial residual = 0, Final residual = 0, No Iterations 0
diagonal:  Solving for e, Initial residual = 0, Final residual = 0, No Iterations 0
ExecutionTime = 0.15625 s  ClockTime = 1 s

Courant Number mean: 0.130611 max: 0.253161
Time = 0.0037s

diagonal:  Solving for rho, Initial residual = 0, Final residual = 0, No Iterations 0
diagonal:  Solving for Ux, Initial residual = 0, Final residual = 0, No Iterations 0
diagonal:  Solving for Uy, Initial residual = 0, Final residual = 0, No Iterations 0
diagonal:  Solving for e, Initial residual = 0, Final residual = 0, No Iterations 0
ExecutionTime = 0.15625 s  ClockTime = 1 s

Courant Number mean: 0.13061 max: 0.252762
Time = 0.0038s

diagonal:  Solving for rho, Initial residual = 0, Final residual = 0, No Iterations 0
diagonal:  Solving for Ux, Initial residual = 0, Final residual = 0, No Iterations 0
diagonal:  Solving for Uy, Initial residual = 0, Final residual = 0, No Iterations 0
diagonal:  Solving for e, Initial residual = 0, Final residual = 0, No Iterations 0
ExecutionTime = 0.171875 s  ClockTime = 1 s

Courant Number mean: 0.13061 max: 0.252369
Time = 0.0039s

diagonal:  Solving for rho, Initial residual = 0, Final residual = 0, No Iterations 0
diagonal:  Solving for Ux, Initial residual = 0, Final residual = 0, No Iterations 0
diagonal:  Solving for Uy, Initial residual = 0, Final residual = 0, No Iterations 0
diagonal:  Solving for e, Initial residual = 0, Final residual = 0, No Iterations 0
ExecutionTime = 0.171875 s  ClockTime = 1 s

Courant Number mean: 0.130609 max: 0.251984
Time = 0.004s

diagonal:  Solving for rho, Initial residual = 0, Final residual = 0, No Iterations 0
diagonal:  Solving for Ux, Initial residual = 0, Final residual = 0, No Iterations 0
diagonal:  Solving for Uy, Initial residual = 0, Final residual = 0, No Iterations 0
diagonal:  Solving for e, Initial residual = 0, Final residual = 0, No Iterations 0
ExecutionTime = 0.171875 s  ClockTime = 1 s

Courant Number mean: 0.130609 max: 0.251608
Time = 0.0041s

diagonal:  Solving for rho, Initial residual = 0, Final residual = 0, No Iterations 0
diagonal:  Solving for Ux, Initial residual = 0, Final residual = 0, No Iterations 0
diagonal:  Solving for Uy, Initial residual = 0, Final residual = 0, No Iterations 0
diagonal:  Solving for e, Initial residual = 0, Final residual = 0, No Iterations 0
ExecutionTime = 0.171875 s  ClockTime = 1 s

Courant Number mean: 0.130609 max: 0.251244
Time = 0.0042s

diagonal:  Solving for rho, Initial residual = 0, Final residual = 0, No Iterations 0
diagonal:  Solving for Ux, Initial residual = 0, Final residual = 0, No Iterations 0
diagonal:  Solving for Uy, Initial residual = 0, Final residual = 0, No Iterations 0
diagonal:  Solving for e, Initial residual = 0, Final residual = 0, No Iterations 0
ExecutionTime = 0.171875 s  ClockTime = 1 s

Courant Number mean: 0.130608 max: 0.250892
Time = 0.0043s

diagonal:  Solving for rho, Initial residual = 0, Final residual = 0, No Iterations 0
diagonal:  Solving for Ux, Initial residual = 0, Final residual = 0, No Iterations 0
diagonal:  Solving for Uy, Initial residual = 0, Final residual = 0, No Iterations 0
diagonal:  Solving for e, Initial residual = 0, Final residual = 0, No Iterations 0
ExecutionTime = 0.171875 s  ClockTime = 1 s

Courant Number mean: 0.130608 max: 0.250553
Time = 0.0044s

diagonal:  Solving for rho, Initial residual = 0, Final residual = 0, No Iterations 0
diagonal:  Solving for Ux, Initial residual = 0, Final residual = 0, No Iterations 0
diagonal:  Solving for Uy, Initial residual = 0, Final residual = 0, No Iterations 0
diagonal:  Solving for e, Initial residual = 0, Final residual = 0, No Iterations 0
ExecutionTime = 0.171875 s  ClockTime = 1 s

Courant Number mean: 0.130608 max: 0.250228
Time = 0.0045s

diagonal:  Solving for rho, Initial residual = 0, Final residual = 0, No Iterations 0
diagonal:  Solving for Ux, Initial residual = 0, Final residual = 0, No Iterations 0
diagonal:  Solving for Uy, Initial residual = 0, Final residual = 0, No Iterations 0
diagonal:  Solving for e, Initial residual = 0, Final residual = 0, No Iterations 0
ExecutionTime = 0.171875 s  ClockTime = 1 s

Courant Number mean: 0.130607 max: 0.249915
Time = 0.0046s

diagonal:  Solving for rho, Initial residual = 0, Final residual = 0, No Iterations 0
diagonal:  Solving for Ux, Initial residual = 0, Final residual = 0, No Iterations 0
diagonal:  Solving for Uy, Initial residual = 0, Final residual = 0, No Iterations 0
diagonal:  Solving for e, Initial residual = 0, Final residual = 0, No Iterations 0
ExecutionTime = 0.1875 s  ClockTime = 1 s

Courant Number mean: 0.130607 max: 0.249617
Time = 0.0047s

diagonal:  Solving for rho, Initial residual = 0, Final residual = 0, No Iterations 0
diagonal:  Solving for Ux, Initial residual = 0, Final residual = 0, No Iterations 0
diagonal:  Solving for Uy, Initial residual = 0, Final residual = 0, No Iterations 0
diagonal:  Solving for e, Initial residual = 0, Final residual = 0, No Iterations 0
ExecutionTime = 0.1875 s  ClockTime = 1 s

Courant Number mean: 0.130607 max: 0.249333
Time = 0.0048s

diagonal:  Solving for rho, Initial residual = 0, Final residual = 0, No Iterations 0
diagonal:  Solving for Ux, Initial residual = 0, Final residual = 0, No Iterations 0
diagonal:  Solving for Uy, Initial residual = 0, Final residual = 0, No Iterations 0
diagonal:  Solving for e, Initial residual = 0, Final residual = 0, No Iterations 0
ExecutionTime = 0.1875 s  ClockTime = 1 s

Courant Number mean: 0.130606 max: 0.249063
Time = 0.0049s

diagonal:  Solving for rho, Initial residual = 0, Final residual = 0, No Iterations 0
diagonal:  Solving for Ux, Initial residual = 0, Final residual = 0, No Iterations 0
diagonal:  Solving for Uy, Initial residual = 0, Final residual = 0, No Iterations 0
diagonal:  Solving for e, Initial residual = 0, Final residual = 0, No Iterations 0
ExecutionTime = 0.1875 s  ClockTime = 1 s

Courant Number mean: 0.130606 max: 0.248871
Time = 0.005s

diagonal:  Solving for rho, Initial residual = 0, Final residual = 0, No Iterations 0
diagonal:  Solving for Ux, Initial residual = 0, Final residual = 0, No Iterations 0
diagonal:  Solving for Uy, Initial residual = 0, Final residual = 0, No Iterations 0
diagonal:  Solving for e, Initial residual = 0, Final residual = 0, No Iterations 0
ExecutionTime = 0.1875 s  ClockTime = 1 s

Courant Number mean: 0.130606 max: 0.248871
Time = 0.0051s

diagonal:  Solving for rho, Initial residual = 0, Final residual = 0, No Iterations 0
diagonal:  Solving for Ux, Initial residual = 0, Final residual = 0, No Iterations 0
diagonal:  Solving for Uy, Initial residual = 0, Final residual = 0, No Iterations 0
diagonal:  Solving for e, Initial residual = 0, Final residual = 0, No Iterations 0
ExecutionTime = 0.1875 s  ClockTime = 1 s

Courant Number mean: 0.130606 max: 0.248871
Time = 0.0052s

diagonal:  Solving for rho, Initial residual = 0, Final residual = 0, No Iterations 0
diagonal:  Solving for Ux, Initial residual = 0, Final residual = 0, No Iterations 0
diagonal:  Solving for Uy, Initial residual = 0, Final residual = 0, No Iterations 0
diagonal:  Solving for e, Initial residual = 0, Final residual = 0, No Iterations 0
ExecutionTime = 0.203125 s  ClockTime = 1 s

Courant Number mean: 0.130606 max: 0.248871
Time = 0.0053s

diagonal:  Solving for rho, Initial residual = 0, Final residual = 0, No Iterations 0
diagonal:  Solving for Ux, Initial residual = 0, Final residual = 0, No Iterations 0
diagonal:  Solving for Uy, Initial residual = 0, Final residual = 0, No Iterations 0
diagonal:  Solving for e, Initial residual = 0, Final residual = 0, No Iterations 0
ExecutionTime = 0.203125 s  ClockTime = 1 s

Courant Number mean: 0.130606 max: 0.248871
Time = 0.0054s

diagonal:  Solving for rho, Initial residual = 0, Final residual = 0, No Iterations 0
diagonal:  Solving for Ux, Initial residual = 0, Final residual = 0, No Iterations 0
diagonal:  Solving for Uy, Initial residual = 0, Final residual = 0, No Iterations 0
diagonal:  Solving for e, Initial residual = 0, Final residual = 0, No Iterations 0
ExecutionTime = 0.203125 s  ClockTime = 1 s

Courant Number mean: 0.130606 max: 0.248871
Time = 0.0055s

diagonal:  Solving for rho, Initial residual = 0, Final residual = 0, No Iterations 0
diagonal:  Solving for Ux, Initial residual = 0, Final residual = 0, No Iterations 0
diagonal:  Solving for Uy, Initial residual = 0, Final residual = 0, No Iterations 0
diagonal:  Solving for e, Initial residual = 0, Final residual = 0, No Iterations 0
ExecutionTime = 0.203125 s  ClockTime = 1 s

Courant Number mean: 0.130606 max: 0.248871
Time = 0.0056s

diagonal:  Solving for rho, Initial residual = 0, Final residual = 0, No Iterations 0
diagonal:  Solving for Ux, Initial residual = 0, Final residual = 0, No Iterations 0
diagonal:  Solving for Uy, Initial residual = 0, Final residual = 0, No Iterations 0
diagonal:  Solving for e, Initial residual = 0, Final residual = 0, No Iterations 0
ExecutionTime = 0.203125 s  ClockTime = 1 s

Courant Number mean: 0.130606 max: 0.248871
Time = 0.0057s

diagonal:  Solving for rho, Initial residual = 0, Final residual = 0, No Iterations 0
diagonal:  Solving for Ux, Initial residual = 0, Final residual = 0, No Iterations 0
diagonal:  Solving for Uy, Initial residual = 0, Final residual = 0, No Iterations 0
diagonal:  Solving for e, Initial residual = 0, Final residual = 0, No Iterations 0
ExecutionTime = 0.203125 s  ClockTime = 1 s

Courant Number mean: 0.130606 max: 0.248871
Time = 0.0058s

diagonal:  Solving for rho, Initial residual = 0, Final residual = 0, No Iterations 0
diagonal:  Solving for Ux, Initial residual = 0, Final residual = 0, No Iterations 0
diagonal:  Solving for Uy, Initial residual = 0, Final residual = 0, No Iterations 0
diagonal:  Solving for e, Initial residual = 0, Final residual = 0, No Iterations 0
ExecutionTime = 0.21875 s  ClockTime = 1 s

Courant Number mean: 0.130606 max: 0.248871
Time = 0.0059s

diagonal:  Solving for rho, Initial residual = 0, Final residual = 0, No Iterations 0
diagonal:  Solving for Ux, Initial residual = 0, Final residual = 0, No Iterations 0
diagonal:  Solving for Uy, Initial residual = 0, Final residual = 0, No Iterations 0
diagonal:  Solving for e, Initial residual = 0, Final residual = 0, No Iterations 0
ExecutionTime = 0.21875 s  ClockTime = 1 s

Courant Number mean: 0.130606 max: 0.248871
Time = 0.006s

diagonal:  Solving for rho, Initial residual = 0, Final residual = 0, No Iterations 0
diagonal:  Solving for Ux, Initial residual = 0, Final residual = 0, No Iterations 0
diagonal:  Solving for Uy, Initial residual = 0, Final residual = 0, No Iterations 0
diagonal:  Solving for e, Initial residual = 0, Final residual = 0, No Iterations 0
ExecutionTime = 0.21875 s  ClockTime = 1 s

Courant Number mean: 0.130606 max: 0.248871
Time = 0.0061s

diagonal:  Solving for rho, Initial residual = 0, Final residual = 0, No Iterations 0
diagonal:  Solving for Ux, Initial residual = 0, Final residual = 0, No Iterations 0
diagonal:  Solving for Uy, Initial residual = 0, Final residual = 0, No Iterations 0
diagonal:  Solving for e, Initial residual = 0, Final residual = 0, No Iterations 0
ExecutionTime = 0.21875 s  ClockTime = 1 s

Courant Number mean: 0.130607 max: 0.248871
Time = 0.0062s

diagonal:  Solving for rho, Initial residual = 0, Final residual = 0, No Iterations 0
diagonal:  Solving for Ux, Initial residual = 0, Final residual = 0, No Iterations 0
diagonal:  Solving for Uy, Initial residual = 0, Final residual = 0, No Iterations 0
diagonal:  Solving for e, Initial residual = 0, Final residual = 0, No Iterations 0
ExecutionTime = 0.21875 s  ClockTime = 1 s

Courant Number mean: 0.130607 max: 0.248871
Time = 0.0063s

diagonal:  Solving for rho, Initial residual = 0, Final residual = 0, No Iterations 0
diagonal:  Solving for Ux, Initial residual = 0, Final residual = 0, No Iterations 0
diagonal:  Solving for Uy, Initial residual = 0, Final residual = 0, No Iterations 0
diagonal:  Solving for e, Initial residual = 0, Final residual = 0, No Iterations 0
ExecutionTime = 0.234375 s  ClockTime = 1 s

Courant Number mean: 0.130607 max: 0.248871
Time = 0.0064s

diagonal:  Solving for rho, Initial residual = 0, Final residual = 0, No Iterations 0
diagonal:  Solving for Ux, Initial residual = 0, Final residual = 0, No Iterations 0
diagonal:  Solving for Uy, Initial residual = 0, Final residual = 0, No Iterations 0
diagonal:  Solving for e, Initial residual = 0, Final residual = 0, No Iterations 0
ExecutionTime = 0.234375 s  ClockTime = 1 s

Courant Number mean: 0.130608 max: 0.248871
Time = 0.0065s

diagonal:  Solving for rho, Initial residual = 0, Final residual = 0, No Iterations 0
diagonal:  Solving for Ux, Initial residual = 0, Final residual = 0, No Iterations 0
diagonal:  Solving for Uy, Initial residual = 0, Final residual = 0, No Iterations 0
diagonal:  Solving for e, Initial residual = 0, Final residual = 0, No Iterations 0
ExecutionTime = 0.234375 s  ClockTime = 1 s

Courant Number mean: 0.130608 max: 0.248871
Time = 0.0066s

diagonal:  Solving for rho, Initial residual = 0, Final residual = 0, No Iterations 0
diagonal:  Solving for Ux, Initial residual = 0, Final residual = 0, No Iterations 0
diagonal:  Solving for Uy, Initial residual = 0, Final residual = 0, No Iterations 0
diagonal:  Solving for e, Initial residual = 0, Final residual = 0, No Iterations 0
ExecutionTime = 0.234375 s  ClockTime = 1 s

Courant Number mean: 0.130609 max: 0.248871
Time = 0.0067s

diagonal:  Solving for rho, Initial residual = 0, Final residual = 0, No Iterations 0
diagonal:  Solving for Ux, Initial residual = 0, Final residual = 0, No Iterations 0
diagonal:  Solving for Uy, Initial residual = 0, Final residual = 0, No Iterations 0
diagonal:  Solving for e, Initial residual = 0, Final residual = 0, No Iterations 0
ExecutionTime = 0.234375 s  ClockTime = 1 s

Courant Number mean: 0.130609 max: 0.248871
Time = 0.0068s

diagonal:  Solving for rho, Initial residual = 0, Final residual = 0, No Iterations 0
diagonal:  Solving for Ux, Initial residual = 0, Final residual = 0, No Iterations 0
diagonal:  Solving for Uy, Initial residual = 0, Final residual = 0, No Iterations 0
diagonal:  Solving for e, Initial residual = 0, Final residual = 0, No Iterations 0
ExecutionTime = 0.234375 s  ClockTime = 1 s

Courant Number mean: 0.13061 max: 0.248871
Time = 0.0069s

diagonal:  Solving for rho, Initial residual = 0, Final residual = 0, No Iterations 0
diagonal:  Solving for Ux, Initial residual = 0, Final residual = 0, No Iterations 0
diagonal:  Solving for Uy, Initial residual = 0, Final residual = 0, No Iterations 0
diagonal:  Solving for e, Initial residual = 0, Final residual = 0, No Iterations 0
ExecutionTime = 0.25 s  ClockTime = 1 s

Courant Number mean: 0.13061 max: 0.248871
Time = 0.007s

diagonal:  Solving for rho, Initial residual = 0, Final residual = 0, No Iterations 0
diagonal:  Solving for Ux, Initial residual = 0, Final residual = 0, No Iterations 0
diagonal:  Solving for Uy, Initial residual = 0, Final residual = 0, No Iterations 0
diagonal:  Solving for e, Initial residual = 0, Final residual = 0, No Iterations 0
ExecutionTime = 0.25 s  ClockTime = 1 s

Courant Number mean: 0.130611 max: 0.248871
Time = 0.0071s

diagonal:  Solving for rho, Initial residual = 0, Final residual = 0, No Iterations 0
diagonal:  Solving for Ux, Initial residual = 0, Final residual = 0, No Iterations 0
diagonal:  Solving for Uy, Initial residual = 0, Final residual = 0, No Iterations 0
diagonal:  Solving for e, Initial residual = 0, Final residual = 0, No Iterations 0
ExecutionTime = 0.25 s  ClockTime = 1 s

Courant Number mean: 0.130612 max: 0.248871
Time = 0.0072s

diagonal:  Solving for rho, Initial residual = 0, Final residual = 0, No Iterations 0
diagonal:  Solving for Ux, Initial residual = 0, Final residual = 0, No Iterations 0
diagonal:  Solving for Uy, Initial residual = 0, Final residual = 0, No Iterations 0
diagonal:  Solving for e, Initial residual = 0, Final residual = 0, No Iterations 0
ExecutionTime = 0.25 s  ClockTime = 1 s

Courant Number mean: 0.130613 max: 0.248871
Time = 0.0073s

diagonal:  Solving for rho, Initial residual = 0, Final residual = 0, No Iterations 0
diagonal:  Solving for Ux, Initial residual = 0, Final residual = 0, No Iterations 0
diagonal:  Solving for Uy, Initial residual = 0, Final residual = 0, No Iterations 0
diagonal:  Solving for e, Initial residual = 0, Final residual = 0, No Iterations 0
ExecutionTime = 0.25 s  ClockTime = 1 s

Courant Number mean: 0.130613 max: 0.248871
Time = 0.0074s

diagonal:  Solving for rho, Initial residual = 0, Final residual = 0, No Iterations 0
diagonal:  Solving for Ux, Initial residual = 0, Final residual = 0, No Iterations 0
diagonal:  Solving for Uy, Initial residual = 0, Final residual = 0, No Iterations 0
diagonal:  Solving for e, Initial residual = 0, Final residual = 0, No Iterations 0
ExecutionTime = 0.265625 s  ClockTime = 1 s

Courant Number mean: 0.130614 max: 0.248871
Time = 0.0075s

diagonal:  Solving for rho, Initial residual = 0, Final residual = 0, No Iterations 0
diagonal:  Solving for Ux, Initial residual = 0, Final residual = 0, No Iterations 0
diagonal:  Solving for Uy, Initial residual = 0, Final residual = 0, No Iterations 0
diagonal:  Solving for e, Initial residual = 0, Final residual = 0, No Iterations 0
ExecutionTime = 0.265625 s  ClockTime = 1 s

Courant Number mean: 0.130615 max: 0.248871
Time = 0.0076s

diagonal:  Solving for rho, Initial residual = 0, Final residual = 0, No Iterations 0
diagonal:  Solving for Ux, Initial residual = 0, Final residual = 0, No Iterations 0
diagonal:  Solving for Uy, Initial residual = 0, Final residual = 0, No Iterations 0
diagonal:  Solving for e, Initial residual = 0, Final residual = 0, No Iterations 0
ExecutionTime = 0.265625 s  ClockTime = 1 s

Courant Number mean: 0.130616 max: 0.248871
Time = 0.0077s

diagonal:  Solving for rho, Initial residual = 0, Final residual = 0, No Iterations 0
diagonal:  Solving for Ux, Initial residual = 0, Final residual = 0, No Iterations 0
diagonal:  Solving for Uy, Initial residual = 0, Final residual = 0, No Iterations 0
diagonal:  Solving for e, Initial residual = 0, Final residual = 0, No Iterations 0
ExecutionTime = 0.265625 s  ClockTime = 1 s

Courant Number mean: 0.130617 max: 0.248871
Time = 0.0078s

diagonal:  Solving for rho, Initial residual = 0, Final residual = 0, No Iterations 0
diagonal:  Solving for Ux, Initial residual = 0, Final residual = 0, No Iterations 0
diagonal:  Solving for Uy, Initial residual = 0, Final residual = 0, No Iterations 0
diagonal:  Solving for e, Initial residual = 0, Final residual = 0, No Iterations 0
ExecutionTime = 0.265625 s  ClockTime = 1 s

Courant Number mean: 0.130618 max: 0.248871
Time = 0.0079s

diagonal:  Solving for rho, Initial residual = 0, Final residual = 0, No Iterations 0
diagonal:  Solving for Ux, Initial residual = 0, Final residual = 0, No Iterations 0
diagonal:  Solving for Uy, Initial residual = 0, Final residual = 0, No Iterations 0
diagonal:  Solving for e, Initial residual = 0, Final residual = 0, No Iterations 0
ExecutionTime = 0.265625 s  ClockTime = 1 s

Courant Number mean: 0.130619 max: 0.248871
Time = 0.008s

diagonal:  Solving for rho, Initial residual = 0, Final residual = 0, No Iterations 0
diagonal:  Solving for Ux, Initial residual = 0, Final residual = 0, No Iterations 0
diagonal:  Solving for Uy, Initial residual = 0, Final residual = 0, No Iterations 0
diagonal:  Solving for e, Initial residual = 0, Final residual = 0, No Iterations 0
ExecutionTime = 0.28125 s  ClockTime = 1 s

Courant Number mean: 0.13062 max: 0.248871
Time = 0.0081s

diagonal:  Solving for rho, Initial residual = 0, Final residual = 0, No Iterations 0
diagonal:  Solving for Ux, Initial residual = 0, Final residual = 0, No Iterations 0
diagonal:  Solving for Uy, Initial residual = 0, Final residual = 0, No Iterations 0
diagonal:  Solving for e, Initial residual = 0, Final residual = 0, No Iterations 0
ExecutionTime = 0.28125 s  ClockTime = 1 s

Courant Number mean: 0.130621 max: 0.248871
Time = 0.0082s

diagonal:  Solving for rho, Initial residual = 0, Final residual = 0, No Iterations 0
diagonal:  Solving for Ux, Initial residual = 0, Final residual = 0, No Iterations 0
diagonal:  Solving for Uy, Initial residual = 0, Final residual = 0, No Iterations 0
diagonal:  Solving for e, Initial residual = 0, Final residual = 0, No Iterations 0
ExecutionTime = 0.28125 s  ClockTime = 1 s

Courant Number mean: 0.130622 max: 0.248871
Time = 0.0083s

diagonal:  Solving for rho, Initial residual = 0, Final residual = 0, No Iterations 0
diagonal:  Solving for Ux, Initial residual = 0, Final residual = 0, No Iterations 0
diagonal:  Solving for Uy, Initial residual = 0, Final residual = 0, No Iterations 0
diagonal:  Solving for e, Initial residual = 0, Final residual = 0, No Iterations 0
ExecutionTime = 0.28125 s  ClockTime = 1 s

Courant Number mean: 0.130623 max: 0.248929
Time = 0.0084s

diagonal:  Solving for rho, Initial residual = 0, Final residual = 0, No Iterations 0
diagonal:  Solving for Ux, Initial residual = 0, Final residual = 0, No Iterations 0
diagonal:  Solving for Uy, Initial residual = 0, Final residual = 0, No Iterations 0
diagonal:  Solving for e, Initial residual = 0, Final residual = 0, No Iterations 0
ExecutionTime = 0.28125 s  ClockTime = 1 s

Courant Number mean: 0.130624 max: 0.2491
Time = 0.0085s

diagonal:  Solving for rho, Initial residual = 0, Final residual = 0, No Iterations 0
diagonal:  Solving for Ux, Initial residual = 0, Final residual = 0, No Iterations 0
diagonal:  Solving for Uy, Initial residual = 0, Final residual = 0, No Iterations 0
diagonal:  Solving for e, Initial residual = 0, Final residual = 0, No Iterations 0
ExecutionTime = 0.296875 s  ClockTime = 1 s

Courant Number mean: 0.130626 max: 0.249278
Time = 0.0086s

diagonal:  Solving for rho, Initial residual = 0, Final residual = 0, No Iterations 0
diagonal:  Solving for Ux, Initial residual = 0, Final residual = 0, No Iterations 0
diagonal:  Solving for Uy, Initial residual = 0, Final residual = 0, No Iterations 0
diagonal:  Solving for e, Initial residual = 0, Final residual = 0, No Iterations 0
ExecutionTime = 0.296875 s  ClockTime = 1 s

Courant Number mean: 0.130627 max: 0.249469
Time = 0.0087s

diagonal:  Solving for rho, Initial residual = 0, Final residual = 0, No Iterations 0
diagonal:  Solving for Ux, Initial residual = 0, Final residual = 0, No Iterations 0
diagonal:  Solving for Uy, Initial residual = 0, Final residual = 0, No Iterations 0
diagonal:  Solving for e, Initial residual = 0, Final residual = 0, No Iterations 0
ExecutionTime = 0.296875 s  ClockTime = 1 s

Courant Number mean: 0.130628 max: 0.249667
Time = 0.0088s

diagonal:  Solving for rho, Initial residual = 0, Final residual = 0, No Iterations 0
diagonal:  Solving for Ux, Initial residual = 0, Final residual = 0, No Iterations 0
diagonal:  Solving for Uy, Initial residual = 0, Final residual = 0, No Iterations 0
diagonal:  Solving for e, Initial residual = 0, Final residual = 0, No Iterations 0
ExecutionTime = 0.296875 s  ClockTime = 1 s

Courant Number mean: 0.130629 max: 0.249872
Time = 0.0089s

diagonal:  Solving for rho, Initial residual = 0, Final residual = 0, No Iterations 0
diagonal:  Solving for Ux, Initial residual = 0, Final residual = 0, No Iterations 0
diagonal:  Solving for Uy, Initial residual = 0, Final residual = 0, No Iterations 0
diagonal:  Solving for e, Initial residual = 0, Final residual = 0, No Iterations 0
ExecutionTime = 0.296875 s  ClockTime = 1 s

Courant Number mean: 0.130631 max: 0.250081
Time = 0.009s

diagonal:  Solving for rho, Initial residual = 0, Final residual = 0, No Iterations 0
diagonal:  Solving for Ux, Initial residual = 0, Final residual = 0, No Iterations 0
diagonal:  Solving for Uy, Initial residual = 0, Final residual = 0, No Iterations 0
diagonal:  Solving for e, Initial residual = 0, Final residual = 0, No Iterations 0
ExecutionTime = 0.296875 s  ClockTime = 1 s

Courant Number mean: 0.130632 max: 0.250293
Time = 0.0091s

diagonal:  Solving for rho, Initial residual = 0, Final residual = 0, No Iterations 0
diagonal:  Solving for Ux, Initial residual = 0, Final residual = 0, No Iterations 0
diagonal:  Solving for Uy, Initial residual = 0, Final residual = 0, No Iterations 0
diagonal:  Solving for e, Initial residual = 0, Final residual = 0, No Iterations 0
ExecutionTime = 0.3125 s  ClockTime = 1 s

Courant Number mean: 0.130634 max: 0.250508
Time = 0.0092s

diagonal:  Solving for rho, Initial residual = 0, Final residual = 0, No Iterations 0
diagonal:  Solving for Ux, Initial residual = 0, Final residual = 0, No Iterations 0
diagonal:  Solving for Uy, Initial residual = 0, Final residual = 0, No Iterations 0
diagonal:  Solving for e, Initial residual = 0, Final residual = 0, No Iterations 0
ExecutionTime = 0.3125 s  ClockTime = 1 s

Courant Number mean: 0.130635 max: 0.250725
Time = 0.0093s

diagonal:  Solving for rho, Initial residual = 0, Final residual = 0, No Iterations 0
diagonal:  Solving for Ux, Initial residual = 0, Final residual = 0, No Iterations 0
diagonal:  Solving for Uy, Initial residual = 0, Final residual = 0, No Iterations 0
diagonal:  Solving for e, Initial residual = 0, Final residual = 0, No Iterations 0
ExecutionTime = 0.3125 s  ClockTime = 1 s

Courant Number mean: 0.130637 max: 0.250943
Time = 0.0094s

diagonal:  Solving for rho, Initial residual = 0, Final residual = 0, No Iterations 0
diagonal:  Solving for Ux, Initial residual = 0, Final residual = 0, No Iterations 0
diagonal:  Solving for Uy, Initial residual = 0, Final residual = 0, No Iterations 0
diagonal:  Solving for e, Initial residual = 0, Final residual = 0, No Iterations 0
ExecutionTime = 0.3125 s  ClockTime = 1 s

Courant Number mean: 0.130638 max: 0.251164
Time = 0.0095s

diagonal:  Solving for rho, Initial residual = 0, Final residual = 0, No Iterations 0
diagonal:  Solving for Ux, Initial residual = 0, Final residual = 0, No Iterations 0
diagonal:  Solving for Uy, Initial residual = 0, Final residual = 0, No Iterations 0
diagonal:  Solving for e, Initial residual = 0, Final residual = 0, No Iterations 0
ExecutionTime = 0.3125 s  ClockTime = 1 s

Courant Number mean: 0.13064 max: 0.251385
Time = 0.0096s

diagonal:  Solving for rho, Initial residual = 0, Final residual = 0, No Iterations 0
diagonal:  Solving for Ux, Initial residual = 0, Final residual = 0, No Iterations 0
diagonal:  Solving for Uy, Initial residual = 0, Final residual = 0, No Iterations 0
diagonal:  Solving for e, Initial residual = 0, Final residual = 0, No Iterations 0
ExecutionTime = 0.3125 s  ClockTime = 1 s

Courant Number mean: 0.130641 max: 0.251608
Time = 0.0097s

diagonal:  Solving for rho, Initial residual = 0, Final residual = 0, No Iterations 0
diagonal:  Solving for Ux, Initial residual = 0, Final residual = 0, No Iterations 0
diagonal:  Solving for Uy, Initial residual = 0, Final residual = 0, No Iterations 0
diagonal:  Solving for e, Initial residual = 0, Final residual = 0, No Iterations 0
ExecutionTime = 0.3125 s  ClockTime = 1 s

Courant Number mean: 0.130643 max: 0.251831
Time = 0.0098s

diagonal:  Solving for rho, Initial residual = 0, Final residual = 0, No Iterations 0
diagonal:  Solving for Ux, Initial residual = 0, Final residual = 0, No Iterations 0
diagonal:  Solving for Uy, Initial residual = 0, Final residual = 0, No Iterations 0
diagonal:  Solving for e, Initial residual = 0, Final residual = 0, No Iterations 0
ExecutionTime = 0.328125 s  ClockTime = 1 s

Courant Number mean: 0.130644 max: 0.252056
Time = 0.0099s

diagonal:  Solving for rho, Initial residual = 0, Final residual = 0, No Iterations 0
diagonal:  Solving for Ux, Initial residual = 0, Final residual = 0, No Iterations 0
diagonal:  Solving for Uy, Initial residual = 0, Final residual = 0, No Iterations 0
diagonal:  Solving for e, Initial residual = 0, Final residual = 0, No Iterations 0
ExecutionTime = 0.328125 s  ClockTime = 1 s

Courant Number mean: 0.130646 max: 0.252282
Time = 0.01s

diagonal:  Solving for rho, Initial residual = 0, Final residual = 0, No Iterations 0
diagonal:  Solving for Ux, Initial residual = 0, Final residual = 0, No Iterations 0
diagonal:  Solving for Uy, Initial residual = 0, Final residual = 0, No Iterations 0
diagonal:  Solving for e, Initial residual = 0, Final residual = 0, No Iterations 0
ExecutionTime = 0.328125 s  ClockTime = 1 s

Courant Number mean: 0.130647 max: 0.25251
Time = 0.0101s

diagonal:  Solving for rho, Initial residual = 0, Final residual = 0, No Iterations 0
diagonal:  Solving for Ux, Initial residual = 0, Final residual = 0, No Iterations 0
diagonal:  Solving for Uy, Initial residual = 0, Final residual = 0, No Iterations 0
diagonal:  Solving for e, Initial residual = 0, Final residual = 0, No Iterations 0
ExecutionTime = 0.328125 s  ClockTime = 1 s

Courant Number mean: 0.130649 max: 0.25274
Time = 0.0102s

diagonal:  Solving for rho, Initial residual = 0, Final residual = 0, No Iterations 0
diagonal:  Solving for Ux, Initial residual = 0, Final residual = 0, No Iterations 0
diagonal:  Solving for Uy, Initial residual = 0, Final residual = 0, No Iterations 0
diagonal:  Solving for e, Initial residual = 0, Final residual = 0, No Iterations 0
ExecutionTime = 0.328125 s  ClockTime = 1 s

Courant Number mean: 0.130651 max: 0.252972
Time = 0.0103s

diagonal:  Solving for rho, Initial residual = 0, Final residual = 0, No Iterations 0
diagonal:  Solving for Ux, Initial residual = 0, Final residual = 0, No Iterations 0
diagonal:  Solving for Uy, Initial residual = 0, Final residual = 0, No Iterations 0
diagonal:  Solving for e, Initial residual = 0, Final residual = 0, No Iterations 0
ExecutionTime = 0.328125 s  ClockTime = 1 s

Courant Number mean: 0.130652 max: 0.253207
Time = 0.0104s

diagonal:  Solving for rho, Initial residual = 0, Final residual = 0, No Iterations 0
diagonal:  Solving for Ux, Initial residual = 0, Final residual = 0, No Iterations 0
diagonal:  Solving for Uy, Initial residual = 0, Final residual = 0, No Iterations 0
diagonal:  Solving for e, Initial residual = 0, Final residual = 0, No Iterations 0
ExecutionTime = 0.34375 s  ClockTime = 1 s

Courant Number mean: 0.130654 max: 0.253444
Time = 0.0105s

diagonal:  Solving for rho, Initial residual = 0, Final residual = 0, No Iterations 0
diagonal:  Solving for Ux, Initial residual = 0, Final residual = 0, No Iterations 0
diagonal:  Solving for Uy, Initial residual = 0, Final residual = 0, No Iterations 0
diagonal:  Solving for e, Initial residual = 0, Final residual = 0, No Iterations 0
ExecutionTime = 0.34375 s  ClockTime = 1 s

Courant Number mean: 0.130656 max: 0.253684
Time = 0.0106s

diagonal:  Solving for rho, Initial residual = 0, Final residual = 0, No Iterations 0
diagonal:  Solving for Ux, Initial residual = 0, Final residual = 0, No Iterations 0
diagonal:  Solving for Uy, Initial residual = 0, Final residual = 0, No Iterations 0
diagonal:  Solving for e, Initial residual = 0, Final residual = 0, No Iterations 0
ExecutionTime = 0.34375 s  ClockTime = 1 s

Courant Number mean: 0.130658 max: 0.253927
Time = 0.0107s

diagonal:  Solving for rho, Initial residual = 0, Final residual = 0, No Iterations 0
diagonal:  Solving for Ux, Initial residual = 0, Final residual = 0, No Iterations 0
diagonal:  Solving for Uy, Initial residual = 0, Final residual = 0, No Iterations 0
diagonal:  Solving for e, Initial residual = 0, Final residual = 0, No Iterations 0
ExecutionTime = 0.34375 s  ClockTime = 1 s

Courant Number mean: 0.13066 max: 0.254173
Time = 0.0108s

diagonal:  Solving for rho, Initial residual = 0, Final residual = 0, No Iterations 0
diagonal:  Solving for Ux, Initial residual = 0, Final residual = 0, No Iterations 0
diagonal:  Solving for Uy, Initial residual = 0, Final residual = 0, No Iterations 0
diagonal:  Solving for e, Initial residual = 0, Final residual = 0, No Iterations 0
ExecutionTime = 0.34375 s  ClockTime = 1 s

Courant Number mean: 0.130661 max: 0.254421
Time = 0.0109s

diagonal:  Solving for rho, Initial residual = 0, Final residual = 0, No Iterations 0
diagonal:  Solving for Ux, Initial residual = 0, Final residual = 0, No Iterations 0
diagonal:  Solving for Uy, Initial residual = 0, Final residual = 0, No Iterations 0
diagonal:  Solving for e, Initial residual = 0, Final residual = 0, No Iterations 0
ExecutionTime = 0.359375 s  ClockTime = 1 s

Courant Number mean: 0.130663 max: 0.254672
Time = 0.011s

diagonal:  Solving for rho, Initial residual = 0, Final residual = 0, No Iterations 0
diagonal:  Solving for Ux, Initial residual = 0, Final residual = 0, No Iterations 0
diagonal:  Solving for Uy, Initial residual = 0, Final residual = 0, No Iterations 0
diagonal:  Solving for e, Initial residual = 0, Final residual = 0, No Iterations 0
ExecutionTime = 0.359375 s  ClockTime = 1 s

Courant Number mean: 0.130665 max: 0.254925
Time = 0.0111s

diagonal:  Solving for rho, Initial residual = 0, Final residual = 0, No Iterations 0
diagonal:  Solving for Ux, Initial residual = 0, Final residual = 0, No Iterations 0
diagonal:  Solving for Uy, Initial residual = 0, Final residual = 0, No Iterations 0
diagonal:  Solving for e, Initial residual = 0, Final residual = 0, No Iterations 0
ExecutionTime = 0.359375 s  ClockTime = 1 s

Courant Number mean: 0.130666 max: 0.255182
Time = 0.0112s

diagonal:  Solving for rho, Initial residual = 0, Final residual = 0, No Iterations 0
diagonal:  Solving for Ux, Initial residual = 0, Final residual = 0, No Iterations 0
diagonal:  Solving for Uy, Initial residual = 0, Final residual = 0, No Iterations 0
diagonal:  Solving for e, Initial residual = 0, Final residual = 0, No Iterations 0
ExecutionTime = 0.359375 s  ClockTime = 1 s

Courant Number mean: 0.130668 max: 0.255441
Time = 0.0113s

diagonal:  Solving for rho, Initial residual = 0, Final residual = 0, No Iterations 0
diagonal:  Solving for Ux, Initial residual = 0, Final residual = 0, No Iterations 0
diagonal:  Solving for Uy, Initial residual = 0, Final residual = 0, No Iterations 0
diagonal:  Solving for e, Initial residual = 0, Final residual = 0, No Iterations 0
ExecutionTime = 0.359375 s  ClockTime = 1 s

Courant Number mean: 0.130669 max: 0.255703
Time = 0.0114s

diagonal:  Solving for rho, Initial residual = 0, Final residual = 0, No Iterations 0
diagonal:  Solving for Ux, Initial residual = 0, Final residual = 0, No Iterations 0
diagonal:  Solving for Uy, Initial residual = 0, Final residual = 0, No Iterations 0
diagonal:  Solving for e, Initial residual = 0, Final residual = 0, No Iterations 0
ExecutionTime = 0.359375 s  ClockTime = 1 s

Courant Number mean: 0.130671 max: 0.255967
Time = 0.0115s

diagonal:  Solving for rho, Initial residual = 0, Final residual = 0, No Iterations 0
diagonal:  Solving for Ux, Initial residual = 0, Final residual = 0, No Iterations 0
diagonal:  Solving for Uy, Initial residual = 0, Final residual = 0, No Iterations 0
diagonal:  Solving for e, Initial residual = 0, Final residual = 0, No Iterations 0
ExecutionTime = 0.375 s  ClockTime = 1 s

Courant Number mean: 0.130672 max: 0.256233
Time = 0.0116s

diagonal:  Solving for rho, Initial residual = 0, Final residual = 0, No Iterations 0
diagonal:  Solving for Ux, Initial residual = 0, Final residual = 0, No Iterations 0
diagonal:  Solving for Uy, Initial residual = 0, Final residual = 0, No Iterations 0
diagonal:  Solving for e, Initial residual = 0, Final residual = 0, No Iterations 0
ExecutionTime = 0.375 s  ClockTime = 1 s

Courant Number mean: 0.130674 max: 0.256501
Time = 0.0117s

diagonal:  Solving for rho, Initial residual = 0, Final residual = 0, No Iterations 0
diagonal:  Solving for Ux, Initial residual = 0, Final residual = 0, No Iterations 0
diagonal:  Solving for Uy, Initial residual = 0, Final residual = 0, No Iterations 0
diagonal:  Solving for e, Initial residual = 0, Final residual = 0, No Iterations 0
ExecutionTime = 0.375 s  ClockTime = 1 s

Courant Number mean: 0.130676 max: 0.256769
Time = 0.0118s

diagonal:  Solving for rho, Initial residual = 0, Final residual = 0, No Iterations 0
diagonal:  Solving for Ux, Initial residual = 0, Final residual = 0, No Iterations 0
diagonal:  Solving for Uy, Initial residual = 0, Final residual = 0, No Iterations 0
diagonal:  Solving for e, Initial residual = 0, Final residual = 0, No Iterations 0
ExecutionTime = 0.375 s  ClockTime = 1 s

Courant Number mean: 0.130677 max: 0.257037
Time = 0.0119s

diagonal:  Solving for rho, Initial residual = 0, Final residual = 0, No Iterations 0
diagonal:  Solving for Ux, Initial residual = 0, Final residual = 0, No Iterations 0
diagonal:  Solving for Uy, Initial residual = 0, Final residual = 0, No Iterations 0
diagonal:  Solving for e, Initial residual = 0, Final residual = 0, No Iterations 0
ExecutionTime = 0.375 s  ClockTime = 1 s

Courant Number mean: 0.130679 max: 0.257302
Time = 0.012s

diagonal:  Solving for rho, Initial residual = 0, Final residual = 0, No Iterations 0
diagonal:  Solving for Ux, Initial residual = 0, Final residual = 0, No Iterations 0
diagonal:  Solving for Uy, Initial residual = 0, Final residual = 0, No Iterations 0
diagonal:  Solving for e, Initial residual = 0, Final residual = 0, No Iterations 0
ExecutionTime = 0.375 s  ClockTime = 1 s

Courant Number mean: 0.13068 max: 0.257562
Time = 0.0121s

diagonal:  Solving for rho, Initial residual = 0, Final residual = 0, No Iterations 0
diagonal:  Solving for Ux, Initial residual = 0, Final residual = 0, No Iterations 0
diagonal:  Solving for Uy, Initial residual = 0, Final residual = 0, No Iterations 0
diagonal:  Solving for e, Initial residual = 0, Final residual = 0, No Iterations 0
ExecutionTime = 0.375 s  ClockTime = 1 s

Courant Number mean: 0.130681 max: 0.257815
Time = 0.0122s

diagonal:  Solving for rho, Initial residual = 0, Final residual = 0, No Iterations 0
diagonal:  Solving for Ux, Initial residual = 0, Final residual = 0, No Iterations 0
diagonal:  Solving for Uy, Initial residual = 0, Final residual = 0, No Iterations 0
diagonal:  Solving for e, Initial residual = 0, Final residual = 0, No Iterations 0
ExecutionTime = 0.375 s  ClockTime = 1 s

Courant Number mean: 0.130683 max: 0.258057
Time = 0.0123s

diagonal:  Solving for rho, Initial residual = 0, Final residual = 0, No Iterations 0
diagonal:  Solving for Ux, Initial residual = 0, Final residual = 0, No Iterations 0
diagonal:  Solving for Uy, Initial residual = 0, Final residual = 0, No Iterations 0
diagonal:  Solving for e, Initial residual = 0, Final residual = 0, No Iterations 0
ExecutionTime = 0.390625 s  ClockTime = 1 s

Courant Number mean: 0.130684 max: 0.258285
Time = 0.0124s

diagonal:  Solving for rho, Initial residual = 0, Final residual = 0, No Iterations 0
diagonal:  Solving for Ux, Initial residual = 0, Final residual = 0, No Iterations 0
diagonal:  Solving for Uy, Initial residual = 0, Final residual = 0, No Iterations 0
diagonal:  Solving for e, Initial residual = 0, Final residual = 0, No Iterations 0
ExecutionTime = 0.390625 s  ClockTime = 1 s

Courant Number mean: 0.130685 max: 0.258495
Time = 0.0125s

diagonal:  Solving for rho, Initial residual = 0, Final residual = 0, No Iterations 0
diagonal:  Solving for Ux, Initial residual = 0, Final residual = 0, No Iterations 0
diagonal:  Solving for Uy, Initial residual = 0, Final residual = 0, No Iterations 0
diagonal:  Solving for e, Initial residual = 0, Final residual = 0, No Iterations 0
ExecutionTime = 0.390625 s  ClockTime = 1 s

Courant Number mean: 0.130687 max: 0.258684
Time = 0.0126s

diagonal:  Solving for rho, Initial residual = 0, Final residual = 0, No Iterations 0
diagonal:  Solving for Ux, Initial residual = 0, Final residual = 0, No Iterations 0
diagonal:  Solving for Uy, Initial residual = 0, Final residual = 0, No Iterations 0
diagonal:  Solving for e, Initial residual = 0, Final residual = 0, No Iterations 0
ExecutionTime = 0.390625 s  ClockTime = 1 s

Courant Number mean: 0.130688 max: 0.258851
Time = 0.0127s

diagonal:  Solving for rho, Initial residual = 0, Final residual = 0, No Iterations 0
diagonal:  Solving for Ux, Initial residual = 0, Final residual = 0, No Iterations 0
diagonal:  Solving for Uy, Initial residual = 0, Final residual = 0, No Iterations 0
diagonal:  Solving for e, Initial residual = 0, Final residual = 0, No Iterations 0
ExecutionTime = 0.40625 s  ClockTime = 1 s

Courant Number mean: 0.130689 max: 0.258994
Time = 0.0128s

diagonal:  Solving for rho, Initial residual = 0, Final residual = 0, No Iterations 0
diagonal:  Solving for Ux, Initial residual = 0, Final residual = 0, No Iterations 0
diagonal:  Solving for Uy, Initial residual = 0, Final residual = 0, No Iterations 0
diagonal:  Solving for e, Initial residual = 0, Final residual = 0, No Iterations 0
ExecutionTime = 0.40625 s  ClockTime = 1 s

Courant Number mean: 0.13069 max: 0.259112
Time = 0.0129s

diagonal:  Solving for rho, Initial residual = 0, Final residual = 0, No Iterations 0
diagonal:  Solving for Ux, Initial residual = 0, Final residual = 0, No Iterations 0
diagonal:  Solving for Uy, Initial residual = 0, Final residual = 0, No Iterations 0
diagonal:  Solving for e, Initial residual = 0, Final residual = 0, No Iterations 0
ExecutionTime = 0.40625 s  ClockTime = 1 s

Courant Number mean: 0.130691 max: 0.259206
Time = 0.013s

diagonal:  Solving for rho, Initial residual = 0, Final residual = 0, No Iterations 0
diagonal:  Solving for Ux, Initial residual = 0, Final residual = 0, No Iterations 0
diagonal:  Solving for Uy, Initial residual = 0, Final residual = 0, No Iterations 0
diagonal:  Solving for e, Initial residual = 0, Final residual = 0, No Iterations 0
ExecutionTime = 0.40625 s  ClockTime = 1 s

Courant Number mean: 0.130692 max: 0.259281
Time = 0.0131s

diagonal:  Solving for rho, Initial residual = 0, Final residual = 0, No Iterations 0
diagonal:  Solving for Ux, Initial residual = 0, Final residual = 0, No Iterations 0
diagonal:  Solving for Uy, Initial residual = 0, Final residual = 0, No Iterations 0
diagonal:  Solving for e, Initial residual = 0, Final residual = 0, No Iterations 0
ExecutionTime = 0.40625 s  ClockTime = 1 s

Courant Number mean: 0.130693 max: 0.25934
Time = 0.0132s

diagonal:  Solving for rho, Initial residual = 0, Final residual = 0, No Iterations 0
diagonal:  Solving for Ux, Initial residual = 0, Final residual = 0, No Iterations 0
diagonal:  Solving for Uy, Initial residual = 0, Final residual = 0, No Iterations 0
diagonal:  Solving for e, Initial residual = 0, Final residual = 0, No Iterations 0
ExecutionTime = 0.40625 s  ClockTime = 1 s

Courant Number mean: 0.130695 max: 0.25939
Time = 0.0133s

diagonal:  Solving for rho, Initial residual = 0, Final residual = 0, No Iterations 0
diagonal:  Solving for Ux, Initial residual = 0, Final residual = 0, No Iterations 0
diagonal:  Solving for Uy, Initial residual = 0, Final residual = 0, No Iterations 0
diagonal:  Solving for e, Initial residual = 0, Final residual = 0, No Iterations 0
ExecutionTime = 0.40625 s  ClockTime = 1 s

Courant Number mean: 0.130696 max: 0.259439
Time = 0.0134s

diagonal:  Solving for rho, Initial residual = 0, Final residual = 0, No Iterations 0
diagonal:  Solving for Ux, Initial residual = 0, Final residual = 0, No Iterations 0
diagonal:  Solving for Uy, Initial residual = 0, Final residual = 0, No Iterations 0
diagonal:  Solving for e, Initial residual = 0, Final residual = 0, No Iterations 0
ExecutionTime = 0.421875 s  ClockTime = 1 s

Courant Number mean: 0.130697 max: 0.259495
Time = 0.0135s

diagonal:  Solving for rho, Initial residual = 0, Final residual = 0, No Iterations 0
diagonal:  Solving for Ux, Initial residual = 0, Final residual = 0, No Iterations 0
diagonal:  Solving for Uy, Initial residual = 0, Final residual = 0, No Iterations 0
diagonal:  Solving for e, Initial residual = 0, Final residual = 0, No Iterations 0
ExecutionTime = 0.421875 s  ClockTime = 1 s

Courant Number mean: 0.130698 max: 0.25957
Time = 0.0136s

diagonal:  Solving for rho, Initial residual = 0, Final residual = 0, No Iterations 0
diagonal:  Solving for Ux, Initial residual = 0, Final residual = 0, No Iterations 0
diagonal:  Solving for Uy, Initial residual = 0, Final residual = 0, No Iterations 0
diagonal:  Solving for e, Initial residual = 0, Final residual = 0, No Iterations 0
ExecutionTime = 0.421875 s  ClockTime = 1 s

Courant Number mean: 0.130699 max: 0.259671
Time = 0.0137s

diagonal:  Solving for rho, Initial residual = 0, Final residual = 0, No Iterations 0
diagonal:  Solving for Ux, Initial residual = 0, Final residual = 0, No Iterations 0
diagonal:  Solving for Uy, Initial residual = 0, Final residual = 0, No Iterations 0
diagonal:  Solving for e, Initial residual = 0, Final residual = 0, No Iterations 0
ExecutionTime = 0.421875 s  ClockTime = 1 s

Courant Number mean: 0.1307 max: 0.259808
Time = 0.0138s

diagonal:  Solving for rho, Initial residual = 0, Final residual = 0, No Iterations 0
diagonal:  Solving for Ux, Initial residual = 0, Final residual = 0, No Iterations 0
diagonal:  Solving for Uy, Initial residual = 0, Final residual = 0, No Iterations 0
diagonal:  Solving for e, Initial residual = 0, Final residual = 0, No Iterations 0
ExecutionTime = 0.421875 s  ClockTime = 1 s

Courant Number mean: 0.130701 max: 0.259988
Time = 0.0139s

diagonal:  Solving for rho, Initial residual = 0, Final residual = 0, No Iterations 0
diagonal:  Solving for Ux, Initial residual = 0, Final residual = 0, No Iterations 0
diagonal:  Solving for Uy, Initial residual = 0, Final residual = 0, No Iterations 0
diagonal:  Solving for e, Initial residual = 0, Final residual = 0, No Iterations 0
ExecutionTime = 0.421875 s  ClockTime = 1 s

Courant Number mean: 0.130702 max: 0.260353
Time = 0.014s

diagonal:  Solving for rho, Initial residual = 0, Final residual = 0, No Iterations 0
diagonal:  Solving for Ux, Initial residual = 0, Final residual = 0, No Iterations 0
diagonal:  Solving for Uy, Initial residual = 0, Final residual = 0, No Iterations 0
diagonal:  Solving for e, Initial residual = 0, Final residual = 0, No Iterations 0
ExecutionTime = 0.4375 s  ClockTime = 1 s

Courant Number mean: 0.130703 max: 0.260742
Time = 0.0141s

diagonal:  Solving for rho, Initial residual = 0, Final residual = 0, No Iterations 0
diagonal:  Solving for Ux, Initial residual = 0, Final residual = 0, No Iterations 0
diagonal:  Solving for Uy, Initial residual = 0, Final residual = 0, No Iterations 0
diagonal:  Solving for e, Initial residual = 0, Final residual = 0, No Iterations 0
ExecutionTime = 0.4375 s  ClockTime = 1 s

Courant Number mean: 0.130704 max: 0.261129
Time = 0.0142s

diagonal:  Solving for rho, Initial residual = 0, Final residual = 0, No Iterations 0
diagonal:  Solving for Ux, Initial residual = 0, Final residual = 0, No Iterations 0
diagonal:  Solving for Uy, Initial residual = 0, Final residual = 0, No Iterations 0
diagonal:  Solving for e, Initial residual = 0, Final residual = 0, No Iterations 0
ExecutionTime = 0.4375 s  ClockTime = 1 s

Courant Number mean: 0.130704 max: 0.261523
Time = 0.0143s

diagonal:  Solving for rho, Initial residual = 0, Final residual = 0, No Iterations 0
diagonal:  Solving for Ux, Initial residual = 0, Final residual = 0, No Iterations 0
diagonal:  Solving for Uy, Initial residual = 0, Final residual = 0, No Iterations 0
diagonal:  Solving for e, Initial residual = 0, Final residual = 0, No Iterations 0
ExecutionTime = 0.4375 s  ClockTime = 1 s

Courant Number mean: 0.130705 max: 0.261884
Time = 0.0144s

diagonal:  Solving for rho, Initial residual = 0, Final residual = 0, No Iterations 0
diagonal:  Solving for Ux, Initial residual = 0, Final residual = 0, No Iterations 0
diagonal:  Solving for Uy, Initial residual = 0, Final residual = 0, No Iterations 0
diagonal:  Solving for e, Initial residual = 0, Final residual = 0, No Iterations 0
ExecutionTime = 0.4375 s  ClockTime = 1 s

Courant Number mean: 0.130706 max: 0.262202
Time = 0.0145s

diagonal:  Solving for rho, Initial residual = 0, Final residual = 0, No Iterations 0
diagonal:  Solving for Ux, Initial residual = 0, Final residual = 0, No Iterations 0
diagonal:  Solving for Uy, Initial residual = 0, Final residual = 0, No Iterations 0
diagonal:  Solving for e, Initial residual = 0, Final residual = 0, No Iterations 0
ExecutionTime = 0.4375 s  ClockTime = 1 s

Courant Number mean: 0.130707 max: 0.262465
Time = 0.0146s

diagonal:  Solving for rho, Initial residual = 0, Final residual = 0, No Iterations 0
diagonal:  Solving for Ux, Initial residual = 0, Final residual = 0, No Iterations 0
diagonal:  Solving for Uy, Initial residual = 0, Final residual = 0, No Iterations 0
diagonal:  Solving for e, Initial residual = 0, Final residual = 0, No Iterations 0
ExecutionTime = 0.4375 s  ClockTime = 1 s

Courant Number mean: 0.130707 max: 0.262668
Time = 0.0147s

diagonal:  Solving for rho, Initial residual = 0, Final residual = 0, No Iterations 0
diagonal:  Solving for Ux, Initial residual = 0, Final residual = 0, No Iterations 0
diagonal:  Solving for Uy, Initial residual = 0, Final residual = 0, No Iterations 0
diagonal:  Solving for e, Initial residual = 0, Final residual = 0, No Iterations 0
ExecutionTime = 0.453125 s  ClockTime = 1 s

Courant Number mean: 0.130708 max: 0.262809
Time = 0.0148s

diagonal:  Solving for rho, Initial residual = 0, Final residual = 0, No Iterations 0
diagonal:  Solving for Ux, Initial residual = 0, Final residual = 0, No Iterations 0
diagonal:  Solving for Uy, Initial residual = 0, Final residual = 0, No Iterations 0
diagonal:  Solving for e, Initial residual = 0, Final residual = 0, No Iterations 0
ExecutionTime = 0.453125 s  ClockTime = 1 s

Courant Number mean: 0.130708 max: 0.262927
Time = 0.0149s

diagonal:  Solving for rho, Initial residual = 0, Final residual = 0, No Iterations 0
diagonal:  Solving for Ux, Initial residual = 0, Final residual = 0, No Iterations 0
diagonal:  Solving for Uy, Initial residual = 0, Final residual = 0, No Iterations 0
diagonal:  Solving for e, Initial residual = 0, Final residual = 0, No Iterations 0
ExecutionTime = 0.453125 s  ClockTime = 1 s

Courant Number mean: 0.130709 max: 0.263079
Time = 0.015s

diagonal:  Solving for rho, Initial residual = 0, Final residual = 0, No Iterations 0
diagonal:  Solving for Ux, Initial residual = 0, Final residual = 0, No Iterations 0
diagonal:  Solving for Uy, Initial residual = 0, Final residual = 0, No Iterations 0
diagonal:  Solving for e, Initial residual = 0, Final residual = 0, No Iterations 0
ExecutionTime = 0.453125 s  ClockTime = 1 s

Courant Number mean: 0.130709 max: 0.263224
Time = 0.0151s

diagonal:  Solving for rho, Initial residual = 0, Final residual = 0, No Iterations 0
diagonal:  Solving for Ux, Initial residual = 0, Final residual = 0, No Iterations 0
diagonal:  Solving for Uy, Initial residual = 0, Final residual = 0, No Iterations 0
diagonal:  Solving for e, Initial residual = 0, Final residual = 0, No Iterations 0
ExecutionTime = 0.453125 s  ClockTime = 1 s

Courant Number mean: 0.13071 max: 0.263642
Time = 0.0152s

diagonal:  Solving for rho, Initial residual = 0, Final residual = 0, No Iterations 0
diagonal:  Solving for Ux, Initial residual = 0, Final residual = 0, No Iterations 0
diagonal:  Solving for Uy, Initial residual = 0, Final residual = 0, No Iterations 0
diagonal:  Solving for e, Initial residual = 0, Final residual = 0, No Iterations 0
ExecutionTime = 0.453125 s  ClockTime = 1 s

Courant Number mean: 0.13071 max: 0.264008
Time = 0.0153s

diagonal:  Solving for rho, Initial residual = 0, Final residual = 0, No Iterations 0
diagonal:  Solving for Ux, Initial residual = 0, Final residual = 0, No Iterations 0
diagonal:  Solving for Uy, Initial residual = 0, Final residual = 0, No Iterations 0
diagonal:  Solving for e, Initial residual = 0, Final residual = 0, No Iterations 0
ExecutionTime = 0.46875 s  ClockTime = 1 s

Courant Number mean: 0.13071 max: 0.264319
Time = 0.0154s

diagonal:  Solving for rho, Initial residual = 0, Final residual = 0, No Iterations 0
diagonal:  Solving for Ux, Initial residual = 0, Final residual = 0, No Iterations 0
diagonal:  Solving for Uy, Initial residual = 0, Final residual = 0, No Iterations 0
diagonal:  Solving for e, Initial residual = 0, Final residual = 0, No Iterations 0
ExecutionTime = 0.46875 s  ClockTime = 1 s

Courant Number mean: 0.130711 max: 0.264584
Time = 0.0155s

diagonal:  Solving for rho, Initial residual = 0, Final residual = 0, No Iterations 0
diagonal:  Solving for Ux, Initial residual = 0, Final residual = 0, No Iterations 0
diagonal:  Solving for Uy, Initial residual = 0, Final residual = 0, No Iterations 0
diagonal:  Solving for e, Initial residual = 0, Final residual = 0, No Iterations 0
ExecutionTime = 0.46875 s  ClockTime = 1 s

Courant Number mean: 0.130711 max: 0.264806
Time = 0.0156s

diagonal:  Solving for rho, Initial residual = 0, Final residual = 0, No Iterations 0
diagonal:  Solving for Ux, Initial residual = 0, Final residual = 0, No Iterations 0
diagonal:  Solving for Uy, Initial residual = 0, Final residual = 0, No Iterations 0
diagonal:  Solving for e, Initial residual = 0, Final residual = 0, No Iterations 0
ExecutionTime = 0.46875 s  ClockTime = 1 s

Courant Number mean: 0.130711 max: 0.264988
Time = 0.0157s

diagonal:  Solving for rho, Initial residual = 0, Final residual = 0, No Iterations 0
diagonal:  Solving for Ux, Initial residual = 0, Final residual = 0, No Iterations 0
diagonal:  Solving for Uy, Initial residual = 0, Final residual = 0, No Iterations 0
diagonal:  Solving for e, Initial residual = 0, Final residual = 0, No Iterations 0
ExecutionTime = 0.46875 s  ClockTime = 1 s

Courant Number mean: 0.130711 max: 0.265136
Time = 0.0158s

diagonal:  Solving for rho, Initial residual = 0, Final residual = 0, No Iterations 0
diagonal:  Solving for Ux, Initial residual = 0, Final residual = 0, No Iterations 0
diagonal:  Solving for Uy, Initial residual = 0, Final residual = 0, No Iterations 0
diagonal:  Solving for e, Initial residual = 0, Final residual = 0, No Iterations 0
ExecutionTime = 0.46875 s  ClockTime = 1 s

Courant Number mean: 0.130711 max: 0.265252
Time = 0.0159s

diagonal:  Solving for rho, Initial residual = 0, Final residual = 0, No Iterations 0
diagonal:  Solving for Ux, Initial residual = 0, Final residual = 0, No Iterations 0
diagonal:  Solving for Uy, Initial residual = 0, Final residual = 0, No Iterations 0
diagonal:  Solving for e, Initial residual = 0, Final residual = 0, No Iterations 0
ExecutionTime = 0.46875 s  ClockTime = 1 s

Courant Number mean: 0.130711 max: 0.265341
Time = 0.016s

diagonal:  Solving for rho, Initial residual = 0, Final residual = 0, No Iterations 0
diagonal:  Solving for Ux, Initial residual = 0, Final residual = 0, No Iterations 0
diagonal:  Solving for Uy, Initial residual = 0, Final residual = 0, No Iterations 0
diagonal:  Solving for e, Initial residual = 0, Final residual = 0, No Iterations 0
ExecutionTime = 0.46875 s  ClockTime = 1 s

Courant Number mean: 0.130711 max: 0.265396
Time = 0.0161s

diagonal:  Solving for rho, Initial residual = 0, Final residual = 0, No Iterations 0
diagonal:  Solving for Ux, Initial residual = 0, Final residual = 0, No Iterations 0
diagonal:  Solving for Uy, Initial residual = 0, Final residual = 0, No Iterations 0
diagonal:  Solving for e, Initial residual = 0, Final residual = 0, No Iterations 0
ExecutionTime = 0.484375 s  ClockTime = 1 s

Courant Number mean: 0.130711 max: 0.265384
Time = 0.0162s

diagonal:  Solving for rho, Initial residual = 0, Final residual = 0, No Iterations 0
diagonal:  Solving for Ux, Initial residual = 0, Final residual = 0, No Iterations 0
diagonal:  Solving for Uy, Initial residual = 0, Final residual = 0, No Iterations 0
diagonal:  Solving for e, Initial residual = 0, Final residual = 0, No Iterations 0
ExecutionTime = 0.484375 s  ClockTime = 1 s

Courant Number mean: 0.130711 max: 0.265572
Time = 0.0163s

diagonal:  Solving for rho, Initial residual = 0, Final residual = 0, No Iterations 0
diagonal:  Solving for Ux, Initial residual = 0, Final residual = 0, No Iterations 0
diagonal:  Solving for Uy, Initial residual = 0, Final residual = 0, No Iterations 0
diagonal:  Solving for e, Initial residual = 0, Final residual = 0, No Iterations 0
ExecutionTime = 0.484375 s  ClockTime = 1 s

Courant Number mean: 0.130711 max: 0.265465
Time = 0.0164s

diagonal:  Solving for rho, Initial residual = 0, Final residual = 0, No Iterations 0
diagonal:  Solving for Ux, Initial residual = 0, Final residual = 0, No Iterations 0
diagonal:  Solving for Uy, Initial residual = 0, Final residual = 0, No Iterations 0
diagonal:  Solving for e, Initial residual = 0, Final residual = 0, No Iterations 0
ExecutionTime = 0.484375 s  ClockTime = 1 s

Courant Number mean: 0.13071 max: 0.265268
Time = 0.0165s

diagonal:  Solving for rho, Initial residual = 0, Final residual = 0, No Iterations 0
diagonal:  Solving for Ux, Initial residual = 0, Final residual = 0, No Iterations 0
diagonal:  Solving for Uy, Initial residual = 0, Final residual = 0, No Iterations 0
diagonal:  Solving for e, Initial residual = 0, Final residual = 0, No Iterations 0
ExecutionTime = 0.484375 s  ClockTime = 1 s

Courant Number mean: 0.13071 max: 0.265159
Time = 0.0166s

diagonal:  Solving for rho, Initial residual = 0, Final residual = 0, No Iterations 0
diagonal:  Solving for Ux, Initial residual = 0, Final residual = 0, No Iterations 0
diagonal:  Solving for Uy, Initial residual = 0, Final residual = 0, No Iterations 0
diagonal:  Solving for e, Initial residual = 0, Final residual = 0, No Iterations 0
ExecutionTime = 0.484375 s  ClockTime = 1 s

Courant Number mean: 0.13071 max: 0.265074
Time = 0.0167s

diagonal:  Solving for rho, Initial residual = 0, Final residual = 0, No Iterations 0
diagonal:  Solving for Ux, Initial residual = 0, Final residual = 0, No Iterations 0
diagonal:  Solving for Uy, Initial residual = 0, Final residual = 0, No Iterations 0
diagonal:  Solving for e, Initial residual = 0, Final residual = 0, No Iterations 0
ExecutionTime = 0.484375 s  ClockTime = 1 s

Courant Number mean: 0.13071 max: 0.264958
Time = 0.0168s

diagonal:  Solving for rho, Initial residual = 0, Final residual = 0, No Iterations 0
diagonal:  Solving for Ux, Initial residual = 0, Final residual = 0, No Iterations 0
diagonal:  Solving for Uy, Initial residual = 0, Final residual = 0, No Iterations 0
diagonal:  Solving for e, Initial residual = 0, Final residual = 0, No Iterations 0
ExecutionTime = 0.5 s  ClockTime = 1 s

Courant Number mean: 0.13071 max: 0.264795
Time = 0.0169s

diagonal:  Solving for rho, Initial residual = 0, Final residual = 0, No Iterations 0
diagonal:  Solving for Ux, Initial residual = 0, Final residual = 0, No Iterations 0
diagonal:  Solving for Uy, Initial residual = 0, Final residual = 0, No Iterations 0
diagonal:  Solving for e, Initial residual = 0, Final residual = 0, No Iterations 0
ExecutionTime = 0.5 s  ClockTime = 1 s

Courant Number mean: 0.130709 max: 0.264425
Time = 0.017s

diagonal:  Solving for rho, Initial residual = 0, Final residual = 0, No Iterations 0
diagonal:  Solving for Ux, Initial residual = 0, Final residual = 0, No Iterations 0
diagonal:  Solving for Uy, Initial residual = 0, Final residual = 0, No Iterations 0
diagonal:  Solving for e, Initial residual = 0, Final residual = 0, No Iterations 0
ExecutionTime = 0.5 s  ClockTime = 1 s

Courant Number mean: 0.130709 max: 0.264067
Time = 0.0171s

diagonal:  Solving for rho, Initial residual = 0, Final residual = 0, No Iterations 0
diagonal:  Solving for Ux, Initial residual = 0, Final residual = 0, No Iterations 0
diagonal:  Solving for Uy, Initial residual = 0, Final residual = 0, No Iterations 0
diagonal:  Solving for e, Initial residual = 0, Final residual = 0, No Iterations 0
ExecutionTime = 0.5 s  ClockTime = 1 s

Courant Number mean: 0.130709 max: 0.263735
Time = 0.0172s

diagonal:  Solving for rho, Initial residual = 0, Final residual = 0, No Iterations 0
diagonal:  Solving for Ux, Initial residual = 0, Final residual = 0, No Iterations 0
diagonal:  Solving for Uy, Initial residual = 0, Final residual = 0, No Iterations 0
diagonal:  Solving for e, Initial residual = 0, Final residual = 0, No Iterations 0
ExecutionTime = 0.5 s  ClockTime = 1 s

Courant Number mean: 0.130708 max: 0.263398
Time = 0.0173s

diagonal:  Solving for rho, Initial residual = 0, Final residual = 0, No Iterations 0
diagonal:  Solving for Ux, Initial residual = 0, Final residual = 0, No Iterations 0
diagonal:  Solving for Uy, Initial residual = 0, Final residual = 0, No Iterations 0
diagonal:  Solving for e, Initial residual = 0, Final residual = 0, No Iterations 0
ExecutionTime = 0.5 s  ClockTime = 1 s

Courant Number mean: 0.130708 max: 0.263037
Time = 0.0174s

diagonal:  Solving for rho, Initial residual = 0, Final residual = 0, No Iterations 0
diagonal:  Solving for Ux, Initial residual = 0, Final residual = 0, No Iterations 0
diagonal:  Solving for Uy, Initial residual = 0, Final residual = 0, No Iterations 0
diagonal:  Solving for e, Initial residual = 0, Final residual = 0, No Iterations 0
ExecutionTime = 0.5 s  ClockTime = 1 s

Courant Number mean: 0.130708 max: 0.262645
Time = 0.0175s

diagonal:  Solving for rho, Initial residual = 0, Final residual = 0, No Iterations 0
diagonal:  Solving for Ux, Initial residual = 0, Final residual = 0, No Iterations 0
diagonal:  Solving for Uy, Initial residual = 0, Final residual = 0, No Iterations 0
diagonal:  Solving for e, Initial residual = 0, Final residual = 0, No Iterations 0
ExecutionTime = 0.515625 s  ClockTime = 1 s

Courant Number mean: 0.130707 max: 0.262219
Time = 0.0176s

diagonal:  Solving for rho, Initial residual = 0, Final residual = 0, No Iterations 0
diagonal:  Solving for Ux, Initial residual = 0, Final residual = 0, No Iterations 0
diagonal:  Solving for Uy, Initial residual = 0, Final residual = 0, No Iterations 0
diagonal:  Solving for e, Initial residual = 0, Final residual = 0, No Iterations 0
ExecutionTime = 0.515625 s  ClockTime = 1 s

Courant Number mean: 0.130707 max: 0.261756
Time = 0.0177s

diagonal:  Solving for rho, Initial residual = 0, Final residual = 0, No Iterations 0
diagonal:  Solving for Ux, Initial residual = 0, Final residual = 0, No Iterations 0
[...]
ExecutionTime = 5.1875 s  ClockTime = 6 s

Courant Number mean: 0.130982 max: 0.25015
Time = 0.1956s

diagonal:  Solving for rho, Initial residual = 0, Final residual = 0, No Iterations 0
diagonal:  Solving for Ux, Initial residual = 0, Final residual = 0, No Iterations 0
diagonal:  Solving for Uy, Initial residual = 0, Final residual = 0, No Iterations 0
diagonal:  Solving for e, Initial residual = 0, Final residual = 0, No Iterations 0
ExecutionTime = 5.1875 s  ClockTime = 6 s

Courant Number mean: 0.130982 max: 0.250348
Time = 0.1957s

diagonal:  Solving for rho, Initial residual = 0, Final residual = 0, No Iterations 0
diagonal:  Solving for Ux, Initial residual = 0, Final residual = 0, No Iterations 0
diagonal:  Solving for Uy, Initial residual = 0, Final residual = 0, No Iterations 0
diagonal:  Solving for e, Initial residual = 0, Final residual = 0, No Iterations 0
ExecutionTime = 5.1875 s  ClockTime = 6 s

Courant Number mean: 0.130981 max: 0.250549
Time = 0.1958s

diagonal:  Solving for rho, Initial residual = 0, Final residual = 0, No Iterations 0
diagonal:  Solving for Ux, Initial residual = 0, Final residual = 0, No Iterations 0
diagonal:  Solving for Uy, Initial residual = 0, Final residual = 0, No Iterations 0
diagonal:  Solving for e, Initial residual = 0, Final residual = 0, No Iterations 0
ExecutionTime = 5.1875 s  ClockTime = 6 s

Courant Number mean: 0.130981 max: 0.25073
Time = 0.1959s

diagonal:  Solving for rho, Initial residual = 0, Final residual = 0, No Iterations 0
diagonal:  Solving for Ux, Initial residual = 0, Final residual = 0, No Iterations 0
diagonal:  Solving for Uy, Initial residual = 0, Final residual = 0, No Iterations 0
diagonal:  Solving for e, Initial residual = 0, Final residual = 0, No Iterations 0
ExecutionTime = 5.1875 s  ClockTime = 6 s

Courant Number mean: 0.130982 max: 0.250862
Time = 0.196s

diagonal:  Solving for rho, Initial residual = 0, Final residual = 0, No Iterations 0
diagonal:  Solving for Ux, Initial residual = 0, Final residual = 0, No Iterations 0
diagonal:  Solving for Uy, Initial residual = 0, Final residual = 0, No Iterations 0
diagonal:  Solving for e, Initial residual = 0, Final residual = 0, No Iterations 0
ExecutionTime = 5.1875 s  ClockTime = 6 s

Courant Number mean: 0.130981 max: 0.250935
Time = 0.1961s

diagonal:  Solving for rho, Initial residual = 0, Final residual = 0, No Iterations 0
diagonal:  Solving for Ux, Initial residual = 0, Final residual = 0, No Iterations 0
diagonal:  Solving for Uy, Initial residual = 0, Final residual = 0, No Iterations 0
diagonal:  Solving for e, Initial residual = 0, Final residual = 0, No Iterations 0
ExecutionTime = 5.20312 s  ClockTime = 6 s

Courant Number mean: 0.130981 max: 0.250951
Time = 0.1962s

diagonal:  Solving for rho, Initial residual = 0, Final residual = 0, No Iterations 0
diagonal:  Solving for Ux, Initial residual = 0, Final residual = 0, No Iterations 0
diagonal:  Solving for Uy, Initial residual = 0, Final residual = 0, No Iterations 0
diagonal:  Solving for e, Initial residual = 0, Final residual = 0, No Iterations 0
ExecutionTime = 5.20312 s  ClockTime = 6 s

Courant Number mean: 0.130981 max: 0.250886
Time = 0.1963s

diagonal:  Solving for rho, Initial residual = 0, Final residual = 0, No Iterations 0
diagonal:  Solving for Ux, Initial residual = 0, Final residual = 0, No Iterations 0
diagonal:  Solving for Uy, Initial residual = 0, Final residual = 0, No Iterations 0
diagonal:  Solving for e, Initial residual = 0, Final residual = 0, No Iterations 0
ExecutionTime = 5.20312 s  ClockTime = 6 s

Courant Number mean: 0.130981 max: 0.250729
Time = 0.1964s

diagonal:  Solving for rho, Initial residual = 0, Final residual = 0, No Iterations 0
diagonal:  Solving for Ux, Initial residual = 0, Final residual = 0, No Iterations 0
diagonal:  Solving for Uy, Initial residual = 0, Final residual = 0, No Iterations 0
diagonal:  Solving for e, Initial residual = 0, Final residual = 0, No Iterations 0
ExecutionTime = 5.20312 s  ClockTime = 6 s

Courant Number mean: 0.130981 max: 0.250484
Time = 0.1965s

diagonal:  Solving for rho, Initial residual = 0, Final residual = 0, No Iterations 0
diagonal:  Solving for Ux, Initial residual = 0, Final residual = 0, No Iterations 0
diagonal:  Solving for Uy, Initial residual = 0, Final residual = 0, No Iterations 0
diagonal:  Solving for e, Initial residual = 0, Final residual = 0, No Iterations 0
ExecutionTime = 5.20312 s  ClockTime = 6 s

Courant Number mean: 0.130981 max: 0.250172
Time = 0.1966s

diagonal:  Solving for rho, Initial residual = 0, Final residual = 0, No Iterations 0
diagonal:  Solving for Ux, Initial residual = 0, Final residual = 0, No Iterations 0
diagonal:  Solving for Uy, Initial residual = 0, Final residual = 0, No Iterations 0
diagonal:  Solving for e, Initial residual = 0, Final residual = 0, No Iterations 0
ExecutionTime = 5.20312 s  ClockTime = 6 s

Courant Number mean: 0.13098 max: 0.249831
Time = 0.1967s

diagonal:  Solving for rho, Initial residual = 0, Final residual = 0, No Iterations 0
diagonal:  Solving for Ux, Initial residual = 0, Final residual = 0, No Iterations 0
diagonal:  Solving for Uy, Initial residual = 0, Final residual = 0, No Iterations 0
diagonal:  Solving for e, Initial residual = 0, Final residual = 0, No Iterations 0
ExecutionTime = 5.21875 s  ClockTime = 6 s

Courant Number mean: 0.130981 max: 0.249501
Time = 0.1968s

diagonal:  Solving for rho, Initial residual = 0, Final residual = 0, No Iterations 0
diagonal:  Solving for Ux, Initial residual = 0, Final residual = 0, No Iterations 0
diagonal:  Solving for Uy, Initial residual = 0, Final residual = 0, No Iterations 0
diagonal:  Solving for e, Initial residual = 0, Final residual = 0, No Iterations 0
ExecutionTime = 5.21875 s  ClockTime = 6 s

Courant Number mean: 0.130981 max: 0.249212
Time = 0.1969s

diagonal:  Solving for rho, Initial residual = 0, Final residual = 0, No Iterations 0
diagonal:  Solving for Ux, Initial residual = 0, Final residual = 0, No Iterations 0
diagonal:  Solving for Uy, Initial residual = 0, Final residual = 0, No Iterations 0
diagonal:  Solving for e, Initial residual = 0, Final residual = 0, No Iterations 0
ExecutionTime = 5.21875 s  ClockTime = 6 s

Courant Number mean: 0.130981 max: 0.248982
Time = 0.197s

diagonal:  Solving for rho, Initial residual = 0, Final residual = 0, No Iterations 0
diagonal:  Solving for Ux, Initial residual = 0, Final residual = 0, No Iterations 0
diagonal:  Solving for Uy, Initial residual = 0, Final residual = 0, No Iterations 0
diagonal:  Solving for e, Initial residual = 0, Final residual = 0, No Iterations 0
ExecutionTime = 5.21875 s  ClockTime = 6 s

Courant Number mean: 0.130981 max: 0.248871
Time = 0.1971s

diagonal:  Solving for rho, Initial residual = 0, Final residual = 0, No Iterations 0
diagonal:  Solving for Ux, Initial residual = 0, Final residual = 0, No Iterations 0
diagonal:  Solving for Uy, Initial residual = 0, Final residual = 0, No Iterations 0
diagonal:  Solving for e, Initial residual = 0, Final residual = 0, No Iterations 0
ExecutionTime = 5.21875 s  ClockTime = 6 s

Courant Number mean: 0.130981 max: 0.248869
Time = 0.1972s

diagonal:  Solving for rho, Initial residual = 0, Final residual = 0, No Iterations 0
diagonal:  Solving for Ux, Initial residual = 0, Final residual = 0, No Iterations 0
diagonal:  Solving for Uy, Initial residual = 0, Final residual = 0, No Iterations 0
diagonal:  Solving for e, Initial residual = 0, Final residual = 0, No Iterations 0
ExecutionTime = 5.21875 s  ClockTime = 6 s

Courant Number mean: 0.130981 max: 0.248866
Time = 0.1973s

diagonal:  Solving for rho, Initial residual = 0, Final residual = 0, No Iterations 0
diagonal:  Solving for Ux, Initial residual = 0, Final residual = 0, No Iterations 0
diagonal:  Solving for Uy, Initial residual = 0, Final residual = 0, No Iterations 0
diagonal:  Solving for e, Initial residual = 0, Final residual = 0, No Iterations 0
ExecutionTime = 5.21875 s  ClockTime = 6 s

Courant Number mean: 0.130981 max: 0.248862
Time = 0.1974s

diagonal:  Solving for rho, Initial residual = 0, Final residual = 0, No Iterations 0
diagonal:  Solving for Ux, Initial residual = 0, Final residual = 0, No Iterations 0
diagonal:  Solving for Uy, Initial residual = 0, Final residual = 0, No Iterations 0
diagonal:  Solving for e, Initial residual = 0, Final residual = 0, No Iterations 0
ExecutionTime = 5.23438 s  ClockTime = 6 s

Courant Number mean: 0.130981 max: 0.249296
Time = 0.1975s

diagonal:  Solving for rho, Initial residual = 0, Final residual = 0, No Iterations 0
diagonal:  Solving for Ux, Initial residual = 0, Final residual = 0, No Iterations 0
diagonal:  Solving for Uy, Initial residual = 0, Final residual = 0, No Iterations 0
diagonal:  Solving for e, Initial residual = 0, Final residual = 0, No Iterations 0
ExecutionTime = 5.23438 s  ClockTime = 6 s

Courant Number mean: 0.13098 max: 0.249904
Time = 0.1976s

diagonal:  Solving for rho, Initial residual = 0, Final residual = 0, No Iterations 0
diagonal:  Solving for Ux, Initial residual = 0, Final residual = 0, No Iterations 0
diagonal:  Solving for Uy, Initial residual = 0, Final residual = 0, No Iterations 0
diagonal:  Solving for e, Initial residual = 0, Final residual = 0, No Iterations 0
ExecutionTime = 5.23438 s  ClockTime = 6 s

Courant Number mean: 0.13098 max: 0.250296
Time = 0.1977s

diagonal:  Solving for rho, Initial residual = 0, Final residual = 0, No Iterations 0
diagonal:  Solving for Ux, Initial residual = 0, Final residual = 0, No Iterations 0
diagonal:  Solving for Uy, Initial residual = 0, Final residual = 0, No Iterations 0
diagonal:  Solving for e, Initial residual = 0, Final residual = 0, No Iterations 0
ExecutionTime = 5.23438 s  ClockTime = 6 s

Courant Number mean: 0.13098 max: 0.250407
Time = 0.1978s

diagonal:  Solving for rho, Initial residual = 0, Final residual = 0, No Iterations 0
diagonal:  Solving for Ux, Initial residual = 0, Final residual = 0, No Iterations 0
diagonal:  Solving for Uy, Initial residual = 0, Final residual = 0, No Iterations 0
diagonal:  Solving for e, Initial residual = 0, Final residual = 0, No Iterations 0
ExecutionTime = 5.23438 s  ClockTime = 6 s

Courant Number mean: 0.13098 max: 0.250245
Time = 0.1979s

diagonal:  Solving for rho, Initial residual = 0, Final residual = 0, No Iterations 0
diagonal:  Solving for Ux, Initial residual = 0, Final residual = 0, No Iterations 0
diagonal:  Solving for Uy, Initial residual = 0, Final residual = 0, No Iterations 0
diagonal:  Solving for e, Initial residual = 0, Final residual = 0, No Iterations 0
ExecutionTime = 5.23438 s  ClockTime = 6 s

Courant Number mean: 0.13098 max: 0.249875
Time = 0.198s

diagonal:  Solving for rho, Initial residual = 0, Final residual = 0, No Iterations 0
diagonal:  Solving for Ux, Initial residual = 0, Final residual = 0, No Iterations 0
diagonal:  Solving for Uy, Initial residual = 0, Final residual = 0, No Iterations 0
diagonal:  Solving for e, Initial residual = 0, Final residual = 0, No Iterations 0
ExecutionTime = 5.25 s  ClockTime = 6 s

Courant Number mean: 0.13098 max: 0.249717
Time = 0.1981s

diagonal:  Solving for rho, Initial residual = 0, Final residual = 0, No Iterations 0
diagonal:  Solving for Ux, Initial residual = 0, Final residual = 0, No Iterations 0
diagonal:  Solving for Uy, Initial residual = 0, Final residual = 0, No Iterations 0
diagonal:  Solving for e, Initial residual = 0, Final residual = 0, No Iterations 0
ExecutionTime = 5.25 s  ClockTime = 6 s

Courant Number mean: 0.13098 max: 0.250072
Time = 0.1982s

diagonal:  Solving for rho, Initial residual = 0, Final residual = 0, No Iterations 0
diagonal:  Solving for Ux, Initial residual = 0, Final residual = 0, No Iterations 0
diagonal:  Solving for Uy, Initial residual = 0, Final residual = 0, No Iterations 0
diagonal:  Solving for e, Initial residual = 0, Final residual = 0, No Iterations 0
ExecutionTime = 5.25 s  ClockTime = 6 s

Courant Number mean: 0.13098 max: 0.250358
Time = 0.1983s

diagonal:  Solving for rho, Initial residual = 0, Final residual = 0, No Iterations 0
diagonal:  Solving for Ux, Initial residual = 0, Final residual = 0, No Iterations 0
diagonal:  Solving for Uy, Initial residual = 0, Final residual = 0, No Iterations 0
diagonal:  Solving for e, Initial residual = 0, Final residual = 0, No Iterations 0
ExecutionTime = 5.25 s  ClockTime = 6 s

Courant Number mean: 0.130981 max: 0.250554
Time = 0.1984s

diagonal:  Solving for rho, Initial residual = 0, Final residual = 0, No Iterations 0
diagonal:  Solving for Ux, Initial residual = 0, Final residual = 0, No Iterations 0
diagonal:  Solving for Uy, Initial residual = 0, Final residual = 0, No Iterations 0
diagonal:  Solving for e, Initial residual = 0, Final residual = 0, No Iterations 0
ExecutionTime = 5.25 s  ClockTime = 6 s

Courant Number mean: 0.130981 max: 0.250645
Time = 0.1985s

diagonal:  Solving for rho, Initial residual = 0, Final residual = 0, No Iterations 0
diagonal:  Solving for Ux, Initial residual = 0, Final residual = 0, No Iterations 0
diagonal:  Solving for Uy, Initial residual = 0, Final residual = 0, No Iterations 0
diagonal:  Solving for e, Initial residual = 0, Final residual = 0, No Iterations 0
ExecutionTime = 5.25 s  ClockTime = 6 s

Courant Number mean: 0.130981 max: 0.250618
Time = 0.1986s

diagonal:  Solving for rho, Initial residual = 0, Final residual = 0, No Iterations 0
diagonal:  Solving for Ux, Initial residual = 0, Final residual = 0, No Iterations 0
diagonal:  Solving for Uy, Initial residual = 0, Final residual = 0, No Iterations 0
diagonal:  Solving for e, Initial residual = 0, Final residual = 0, No Iterations 0
ExecutionTime = 5.25 s  ClockTime = 6 s

Courant Number mean: 0.130981 max: 0.250465
Time = 0.1987s

diagonal:  Solving for rho, Initial residual = 0, Final residual = 0, No Iterations 0
diagonal:  Solving for Ux, Initial residual = 0, Final residual = 0, No Iterations 0
diagonal:  Solving for Uy, Initial residual = 0, Final residual = 0, No Iterations 0
diagonal:  Solving for e, Initial residual = 0, Final residual = 0, No Iterations 0
ExecutionTime = 5.26562 s  ClockTime = 6 s

Courant Number mean: 0.130981 max: 0.250549
Time = 0.1988s

diagonal:  Solving for rho, Initial residual = 0, Final residual = 0, No Iterations 0
diagonal:  Solving for Ux, Initial residual = 0, Final residual = 0, No Iterations 0
diagonal:  Solving for Uy, Initial residual = 0, Final residual = 0, No Iterations 0
diagonal:  Solving for e, Initial residual = 0, Final residual = 0, No Iterations 0
ExecutionTime = 5.26562 s  ClockTime = 6 s

Courant Number mean: 0.130982 max: 0.250738
Time = 0.1989s

diagonal:  Solving for rho, Initial residual = 0, Final residual = 0, No Iterations 0
diagonal:  Solving for Ux, Initial residual = 0, Final residual = 0, No Iterations 0
diagonal:  Solving for Uy, Initial residual = 0, Final residual = 0, No Iterations 0
diagonal:  Solving for e, Initial residual = 0, Final residual = 0, No Iterations 0
ExecutionTime = 5.26562 s  ClockTime = 6 s

Courant Number mean: 0.130982 max: 0.250899
Time = 0.199s

diagonal:  Solving for rho, Initial residual = 0, Final residual = 0, No Iterations 0
diagonal:  Solving for Ux, Initial residual = 0, Final residual = 0, No Iterations 0
diagonal:  Solving for Uy, Initial residual = 0, Final residual = 0, No Iterations 0
diagonal:  Solving for e, Initial residual = 0, Final residual = 0, No Iterations 0
ExecutionTime = 5.26562 s  ClockTime = 6 s

Courant Number mean: 0.130982 max: 0.25102
Time = 0.1991s

diagonal:  Solving for rho, Initial residual = 0, Final residual = 0, No Iterations 0
diagonal:  Solving for Ux, Initial residual = 0, Final residual = 0, No Iterations 0
diagonal:  Solving for Uy, Initial residual = 0, Final residual = 0, No Iterations 0
diagonal:  Solving for e, Initial residual = 0, Final residual = 0, No Iterations 0
ExecutionTime = 5.26562 s  ClockTime = 6 s

Courant Number mean: 0.130982 max: 0.251078
Time = 0.1992s

diagonal:  Solving for rho, Initial residual = 0, Final residual = 0, No Iterations 0
diagonal:  Solving for Ux, Initial residual = 0, Final residual = 0, No Iterations 0
diagonal:  Solving for Uy, Initial residual = 0, Final residual = 0, No Iterations 0
diagonal:  Solving for e, Initial residual = 0, Final residual = 0, No Iterations 0
ExecutionTime = 5.26562 s  ClockTime = 6 s

Courant Number mean: 0.130982 max: 0.251061
Time = 0.1993s

diagonal:  Solving for rho, Initial residual = 0, Final residual = 0, No Iterations 0
diagonal:  Solving for Ux, Initial residual = 0, Final residual = 0, No Iterations 0
diagonal:  Solving for Uy, Initial residual = 0, Final residual = 0, No Iterations 0
diagonal:  Solving for e, Initial residual = 0, Final residual = 0, No Iterations 0
ExecutionTime = 5.28125 s  ClockTime = 6 s

Courant Number mean: 0.130982 max: 0.250976
Time = 0.1994s

diagonal:  Solving for rho, Initial residual = 0, Final residual = 0, No Iterations 0
diagonal:  Solving for Ux, Initial residual = 0, Final residual = 0, No Iterations 0
diagonal:  Solving for Uy, Initial residual = 0, Final residual = 0, No Iterations 0
diagonal:  Solving for e, Initial residual = 0, Final residual = 0, No Iterations 0
ExecutionTime = 5.28125 s  ClockTime = 6 s

Courant Number mean: 0.130982 max: 0.250828
Time = 0.1995s

diagonal:  Solving for rho, Initial residual = 0, Final residual = 0, No Iterations 0
diagonal:  Solving for Ux, Initial residual = 0, Final residual = 0, No Iterations 0
diagonal:  Solving for Uy, Initial residual = 0, Final residual = 0, No Iterations 0
diagonal:  Solving for e, Initial residual = 0, Final residual = 0, No Iterations 0
ExecutionTime = 5.28125 s  ClockTime = 6 s

Courant Number mean: 0.130982 max: 0.250611
Time = 0.1996s

diagonal:  Solving for rho, Initial residual = 0, Final residual = 0, No Iterations 0
diagonal:  Solving for Ux, Initial residual = 0, Final residual = 0, No Iterations 0
diagonal:  Solving for Uy, Initial residual = 0, Final residual = 0, No Iterations 0
diagonal:  Solving for e, Initial residual = 0, Final residual = 0, No Iterations 0
ExecutionTime = 5.28125 s  ClockTime = 6 s

Courant Number mean: 0.130982 max: 0.250333
Time = 0.1997s

diagonal:  Solving for rho, Initial residual = 0, Final residual = 0, No Iterations 0
diagonal:  Solving for Ux, Initial residual = 0, Final residual = 0, No Iterations 0
diagonal:  Solving for Uy, Initial residual = 0, Final residual = 0, No Iterations 0
diagonal:  Solving for e, Initial residual = 0, Final residual = 0, No Iterations 0
ExecutionTime = 5.28125 s  ClockTime = 6 s

Courant Number mean: 0.130982 max: 0.250016
Time = 0.1998s

diagonal:  Solving for rho, Initial residual = 0, Final residual = 0, No Iterations 0
diagonal:  Solving for Ux, Initial residual = 0, Final residual = 0, No Iterations 0
diagonal:  Solving for Uy, Initial residual = 0, Final residual = 0, No Iterations 0
diagonal:  Solving for e, Initial residual = 0, Final residual = 0, No Iterations 0
ExecutionTime = 5.29688 s  ClockTime = 6 s

Courant Number mean: 0.130982 max: 0.249688
Time = 0.1999s

diagonal:  Solving for rho, Initial residual = 0, Final residual = 0, No Iterations 0
diagonal:  Solving for Ux, Initial residual = 0, Final residual = 0, No Iterations 0
diagonal:  Solving for Uy, Initial residual = 0, Final residual = 0, No Iterations 0
diagonal:  Solving for e, Initial residual = 0, Final residual = 0, No Iterations 0
ExecutionTime = 5.29688 s  ClockTime = 6 s

Courant Number mean: 0.130982 max: 0.249377
Time = 0.2s

diagonal:  Solving for rho, Initial residual = 0, Final residual = 0, No Iterations 0
diagonal:  Solving for Ux, Initial residual = 0, Final residual = 0, No Iterations 0
diagonal:  Solving for Uy, Initial residual = 0, Final residual = 0, No Iterations 0
diagonal:  Solving for e, Initial residual = 0, Final residual = 0, No Iterations 0
ExecutionTime = 5.3125 s  ClockTime = 6 s

End

